Version 4
SHEET 1 880 1024
WIRE -640 -336 -720 -336
WIRE -496 -336 -576 -336
WIRE -400 -336 -432 -336
WIRE -320 -336 -400 -336
WIRE -160 -336 -256 -336
WIRE -48 -336 -96 -336
WIRE 224 -336 64 -336
WIRE 384 -336 320 -336
WIRE -720 -304 -720 -336
WIRE -400 -240 -400 -336
WIRE -384 -240 -400 -240
WIRE -224 -240 -320 -240
WIRE -128 -240 -128 -304
WIRE -128 -240 -160 -240
WIRE -608 -224 -608 -304
WIRE -720 -192 -720 -224
WIRE 48 -192 16 -192
WIRE 160 -192 112 -192
WIRE 320 -192 160 -192
WIRE 16 -160 16 -192
WIRE 320 -160 320 -192
WIRE 160 -144 160 -192
WIRE 16 -48 16 -80
WIRE 160 -48 160 -80
WIRE 160 -48 16 -48
WIRE 320 -48 320 -80
WIRE 320 -48 160 -48
WIRE 320 -32 320 -48
WIRE 160 32 16 32
WIRE 320 32 160 32
WIRE 16 64 16 32
WIRE 320 64 320 32
WIRE 160 80 160 32
WIRE -272 160 -480 160
WIRE 16 176 16 144
WIRE 48 176 16 176
WIRE 160 176 160 144
WIRE 160 176 112 176
WIRE 320 176 320 144
WIRE 320 176 160 176
WIRE 320 192 320 176
WIRE -272 256 -272 160
WIRE -480 272 -480 160
WIRE 48 288 16 288
WIRE 160 288 112 288
WIRE 320 288 160 288
WIRE 16 320 16 288
WIRE 160 320 160 288
WIRE 320 320 320 288
WIRE -272 400 -272 336
WIRE 16 432 16 400
WIRE 160 432 160 384
WIRE 160 432 16 432
WIRE 320 432 320 400
WIRE 320 432 160 432
WIRE 320 448 320 432
WIRE -272 512 -272 480
WIRE 160 512 16 512
WIRE 320 512 160 512
WIRE -272 528 -272 512
WIRE -384 544 -400 544
WIRE -320 544 -384 544
WIRE 16 544 16 512
WIRE 160 544 160 512
WIRE 320 544 320 512
WIRE -320 592 -336 592
WIRE -480 656 -480 352
WIRE -336 656 -336 592
WIRE -336 656 -480 656
WIRE -272 656 -272 608
WIRE -272 656 -336 656
WIRE 16 656 16 624
WIRE 48 656 16 656
WIRE 160 656 160 608
WIRE 160 656 112 656
WIRE 320 656 320 624
WIRE 320 656 160 656
WIRE -272 672 -272 656
WIRE 320 672 320 656
WIRE 48 768 16 768
WIRE 160 768 112 768
WIRE 320 768 160 768
WIRE 16 800 16 768
WIRE 320 800 320 768
WIRE 160 816 160 768
WIRE 16 928 16 880
WIRE 160 928 160 880
WIRE 160 928 16 928
WIRE 320 928 320 880
WIRE 320 928 160 928
WIRE 320 944 320 928
FLAG -272 672 0
FLAG 320 944 0
FLAG 320 -32 0
FLAG 320 448 0
FLAG -272 160 E1
FLAG 16 288 E2_+12
FLAG 16 -192 E2_+5
FLAG 16 768 E2_33
FLAG 320 288 Cout_+12
FLAG 320 -192 Vout_+5
FLAG 320 768 Vout_33
FLAG -272 512 VDS
FLAG 320 192 0
FLAG 16 32 E2_-5
FLAG 320 32 Vout_-5
FLAG 320 672 0
FLAG 16 512 E2_-12
FLAG 320 512 Vout_-12
FLAG -720 -192 0
FLAG -608 -224 Vout_33
FLAG 384 -336 PWM
FLAG -384 544 PWM
SYMBOL voltage -480 256 R0
SYMATTR InstName Vin
SYMATTR Value 400
SYMBOL ind2 -288 352 M180
WINDOW 0 36 80 Left 2
WINDOW 3 36 40 Left 2
SYMATTR InstName Lprim
SYMATTR Value 1.1m
SYMATTR Type ind
SYMATTR SpiceLine Rser=1m
SYMBOL ind2 32 304 M0
SYMATTR InstName Lsec_+12
SYMATTR Value 0.99µ
SYMATTR Type ind
SYMATTR SpiceLine Rser=1m
SYMBOL ind2 32 -176 M0
SYMATTR InstName Lsec_+5
SYMATTR Value 0.172µ
SYMATTR Type ind
SYMATTR SpiceLine Rser=1m
SYMBOL ind2 32 896 R180
WINDOW 0 36 80 Left 2
WINDOW 3 36 40 Left 2
SYMATTR InstName Lsec_33
SYMATTR Value 74.9n
SYMATTR Type ind
SYMATTR SpiceLine Rser=1m
SYMBOL sw -272 624 M180
SYMATTR InstName S1
SYMATTR Value Switch1
SYMBOL res 304 304 R0
SYMATTR InstName Rload_+12
SYMATTR Value 429m
SYMBOL res 304 -176 R0
SYMATTR InstName Rload_+5
SYMATTR Value 143m
SYMBOL res 304 784 R0
SYMATTR InstName Rload_33
SYMATTR Value 97.1m
SYMBOL cap 144 816 R0
SYMATTR InstName Cout_33
SYMATTR Value 3.4m
SYMBOL cap 144 -144 R0
SYMATTR InstName Cout_+5
SYMATTR Value 3.5m
SYMBOL cap 144 320 R0
SYMATTR InstName Cout_+12
SYMATTR Value 1.2m
SYMBOL diode 48 304 R270
WINDOW 0 32 32 VTop 2
WINDOW 3 0 32 VBottom 2
SYMATTR InstName D1
SYMBOL diode 48 -176 R270
WINDOW 0 32 32 VTop 2
WINDOW 3 0 32 VBottom 2
SYMATTR InstName D2
SYMBOL diode 48 784 R270
WINDOW 0 32 32 VTop 2
WINDOW 3 0 32 VBottom 2
SYMATTR InstName D3
SYMBOL ind2 32 48 M0
SYMATTR InstName Lsec_-5
SYMATTR Value 0.172µ
SYMATTR Type ind
SYMATTR SpiceLine Rser=1m
SYMBOL res 304 48 R0
SYMATTR InstName Rload_-5
SYMATTR Value 10
SYMBOL cap 144 80 R0
SYMATTR InstName Cout_-5
SYMATTR Value 50µ
SYMBOL diode 48 192 R270
WINDOW 0 32 32 VTop 2
WINDOW 3 0 32 VBottom 2
SYMATTR InstName D4
SYMBOL ind2 32 640 R180
WINDOW 0 36 80 Left 2
WINDOW 3 36 40 Left 2
SYMATTR InstName Lsec_-12
SYMATTR Value 0.99µ
SYMATTR Type ind
SYMATTR SpiceLine Rser=1m
SYMBOL res 304 528 R0
SYMATTR InstName Rload_-12
SYMATTR Value 12
SYMBOL cap 144 544 R0
SYMATTR InstName Cout_-12
SYMATTR Value 41.7µ
SYMBOL diode 48 672 R270
WINDOW 0 32 32 VTop 2
WINDOW 3 0 32 VBottom 2
SYMATTR InstName D5
SYMBOL LTspiceControlLibrary\\PulseModulations\\PWM 240 -304 R0
SYMATTR Value Vin1=-30m Vin2=30m Tperiod=10u
SYMATTR InstName U1
SYMBOL LTspiceControlLibrary\\Math\\Operands\\sub -624 -304 R0
SYMATTR InstName U2
SYMBOL LTspiceControlLibrary\\TransferFunctions\\Proportional -480 -304 R0
SYMATTR InstName U3
SYMBOL LTspiceControlLibrary\\Math\\Operands\\add -144 -304 R0
SYMATTR InstName U4
SYMBOL LTspiceControlLibrary\\TransferFunctions\\Proportional -304 -304 R0
SYMATTR Value K=0.085
SYMATTR InstName U5
SYMBOL LTspiceControlLibrary\\Math\\Functions\\limit -32 -304 R0
SYMATTR Value y=-29m z=29m
SYMATTR InstName U6
SYMBOL LTspiceControlLibrary\\TransferFunctions\\Proportional -368 -208 R0
SYMATTR Value K=8000
SYMATTR InstName U7
SYMBOL LTspiceControlLibrary\\TransferFunctions\\Integral -208 -208 R0
SYMATTR InstName U8
SYMBOL voltage -720 -320 R0
SYMATTR InstName V1
SYMATTR Value 3.3
SYMBOL res -288 384 R0
SYMATTR InstName R1
SYMATTR Value 1m
TEXT -832 8 Left 2 !K Lprim Lsec_+12 Lsec_-12 Lsec_+5 Lsec_-5 Lsec_33 0.99
TEXT -832 32 Left 2 !.tran 0 20m 0
TEXT -832 56 Left 2 !.model Switch1 SW(Ron=1 Roff=1Meg Vt=0.5 Vh=-0.4)
