Version 4
SHEET 1 1384 1024
WIRE -384 -144 -464 -144
WIRE -240 -144 -320 -144
WIRE -144 -144 -176 -144
WIRE -64 -144 -144 -144
WIRE 96 -144 0 -144
WIRE 208 -144 160 -144
WIRE 480 -144 320 -144
WIRE 640 -144 576 -144
WIRE -464 -112 -464 -144
WIRE -144 -48 -144 -144
WIRE -128 -48 -144 -48
WIRE 32 -48 -64 -48
WIRE 128 -48 128 -112
WIRE 128 -48 96 -48
WIRE -352 -32 -352 -112
WIRE -464 0 -464 -32
WIRE -272 160 -480 160
WIRE 32 192 0 192
WIRE 144 192 96 192
WIRE 304 192 144 192
WIRE 304 208 304 192
WIRE 464 208 304 208
WIRE 672 208 464 208
WIRE 880 208 672 208
WIRE 0 224 0 192
WIRE 304 224 304 208
WIRE 144 240 144 192
WIRE -272 256 -272 160
WIRE -480 272 -480 160
WIRE 464 272 464 208
WIRE 672 272 672 208
WIRE 880 272 880 208
WIRE 0 352 0 304
WIRE 144 352 144 304
WIRE 144 352 0 352
WIRE 304 352 304 304
WIRE 304 352 144 352
WIRE -272 368 -272 336
WIRE 304 368 304 352
WIRE -272 384 -272 368
WIRE 464 384 464 352
WIRE 672 384 672 352
WIRE 880 384 880 352
WIRE -320 400 -400 400
WIRE 416 400 320 400
WIRE 624 400 528 400
WIRE 832 400 736 400
WIRE -400 416 -400 400
WIRE -320 448 -336 448
WIRE 320 480 320 400
WIRE 464 480 464 464
WIRE 528 480 528 400
WIRE 672 480 672 464
WIRE 736 480 736 400
WIRE 880 480 880 464
WIRE -480 512 -480 352
WIRE -400 512 -400 496
WIRE -400 512 -480 512
WIRE -336 512 -336 448
WIRE -336 512 -400 512
WIRE -272 512 -272 464
WIRE -272 512 -336 512
WIRE -272 528 -272 512
WIRE 320 576 320 560
FLAG -272 528 0
FLAG 304 368 0
FLAG -272 160 E1
FLAG 0 192 E2_33
FLAG 304 192 Vout_33
FLAG -272 368 VDS
FLAG -464 0 0
FLAG -352 -32 Vout_33
FLAG -400 416 PWM
FLAG 640 -144 PWM
FLAG 464 480 0
FLAG 416 448 0
FLAG 320 576 0
FLAG 672 480 0
FLAG 528 560 0
FLAG 624 448 0
FLAG 880 480 0
FLAG 736 560 0
FLAG 832 448 0
SYMBOL voltage -480 256 R0
SYMATTR InstName Vin
SYMATTR Value 400
SYMBOL ind2 -288 352 M180
WINDOW 0 36 80 Left 2
WINDOW 3 36 40 Left 2
SYMATTR InstName Lprim
SYMATTR Value 1.1m
SYMATTR Type ind
SYMATTR SpiceLine Rser=1m
SYMBOL ind2 16 320 R180
WINDOW 0 36 80 Left 2
WINDOW 3 36 40 Left 2
SYMATTR InstName Lsec_33
SYMATTR Value 74.9n
SYMATTR Type ind
SYMATTR SpiceLine Rser=1m
SYMBOL sw -272 480 M180
SYMATTR InstName S1
SYMATTR Value Switch1
SYMBOL res 288 208 R0
SYMATTR InstName Rload_33
SYMATTR Value 43m
SYMBOL cap 128 240 R0
SYMATTR InstName Cout_33
SYMATTR Value 3.4m
SYMBOL diode 32 208 R270
WINDOW 0 32 32 VTop 2
WINDOW 3 0 32 VBottom 2
SYMATTR InstName D3
SYMBOL LTspiceControlLibrary\\PulseModulations\\PWM 496 -112 R0
SYMATTR Value Vin1=-30m Vin2=30m Tperiod=10u
SYMATTR InstName U1
SYMBOL LTspiceControlLibrary\\Math\\Operands\\sub -368 -112 R0
SYMATTR InstName U2
SYMBOL LTspiceControlLibrary\\TransferFunctions\\Proportional -224 -112 R0
SYMATTR InstName U3
SYMBOL LTspiceControlLibrary\\Math\\Operands\\add 112 -112 R0
SYMATTR InstName U4
SYMBOL LTspiceControlLibrary\\TransferFunctions\\Proportional -48 -112 R0
SYMATTR Value K=0.085
SYMATTR InstName U5
SYMBOL LTspiceControlLibrary\\Math\\Functions\\limit 224 -112 R0
SYMATTR Value y=-29m z=29m
SYMATTR InstName U6
SYMBOL LTspiceControlLibrary\\TransferFunctions\\Proportional -112 -16 R0
SYMATTR Value K=8000
SYMATTR InstName U7
SYMBOL LTspiceControlLibrary\\TransferFunctions\\Integral 48 -16 R0
SYMATTR InstName U8
SYMBOL voltage -464 -128 R0
SYMATTR InstName V1
SYMATTR Value 3.3
SYMBOL res 448 256 R0
SYMATTR InstName R1
SYMATTR Value 57m
SYMBOL sw 464 480 M180
SYMATTR InstName S2
SYMATTR Value Switch1
SYMBOL voltage 320 464 R0
WINDOW 3 -20 197 Left 2
WINDOW 123 0 0 Left 0
WINDOW 39 0 0 Left 0
SYMATTR Value PULSE(0 1 1m 20u 0.2m 0.6m 2m)
SYMATTR InstName V2
SYMBOL res 656 256 R0
SYMATTR InstName R2
SYMATTR Value 85m
SYMBOL sw 672 480 M180
SYMATTR InstName S3
SYMATTR Value Switch1
SYMBOL voltage 528 464 R0
WINDOW 123 0 0 Left 0
WINDOW 39 0 0 Left 0
WINDOW 3 -25 162 Left 2
SYMATTR InstName V3
SYMATTR Value PULSE(0 1 0.9m 7u 0.5m 0.3m 0.9m)
SYMBOL res 864 256 R0
SYMATTR InstName R3
SYMATTR Value 171m
SYMBOL sw 880 480 M180
SYMATTR InstName S4
SYMATTR Value Switch1
SYMBOL voltage 736 464 R0
WINDOW 123 0 0 Left 0
WINDOW 39 0 0 Left 0
WINDOW 3 -9 136 Left 2
SYMATTR InstName V4
SYMATTR Value PULSE(0 1 5u 1m 9u 0.2m 1.4m)
TEXT 248 24 Left 2 !K Lprim Lsec_33 0.99
TEXT 248 48 Left 2 !.tran 0 10m 0
TEXT 248 72 Left 2 !.model Switch1 SW(Ron=1 Roff=1Meg Vt=0.5 Vh=-0.4)
