Version 4
SHEET 1 880 680
WIRE 48 64 16 64
WIRE 160 64 112 64
WIRE 256 64 160 64
WIRE 16 96 16 64
WIRE 160 96 160 64
WIRE 256 96 256 64
WIRE -272 160 -480 160
WIRE 16 208 16 176
WIRE 160 208 160 160
WIRE 160 208 16 208
WIRE 256 208 256 176
WIRE 256 208 160 208
WIRE 256 224 256 208
WIRE -272 256 -272 160
WIRE 48 256 16 256
WIRE 160 256 112 256
WIRE 256 256 160 256
WIRE -480 272 -480 160
WIRE 16 288 16 256
WIRE 256 288 256 256
WIRE 160 304 160 256
WIRE -272 384 -272 336
WIRE -320 400 -400 400
WIRE 16 400 16 368
WIRE 160 400 160 368
WIRE 160 400 16 400
WIRE 256 400 256 368
WIRE 256 400 160 400
WIRE -400 416 -400 400
WIRE 256 416 256 400
WIRE -320 448 -336 448
WIRE 48 464 16 464
WIRE 160 464 112 464
WIRE 256 464 160 464
WIRE 16 496 16 464
WIRE 256 496 256 464
WIRE -480 512 -480 352
WIRE -400 512 -400 496
WIRE -400 512 -480 512
WIRE -336 512 -336 448
WIRE -336 512 -400 512
WIRE -272 512 -272 464
WIRE -272 512 -336 512
WIRE 160 512 160 464
WIRE -272 528 -272 512
WIRE 16 624 16 576
WIRE 160 624 160 576
WIRE 160 624 16 624
WIRE 256 624 256 576
WIRE 256 624 160 624
WIRE 256 640 256 624
FLAG -272 528 0
FLAG 256 640 0
FLAG 256 416 0
FLAG 256 224 0
SYMBOL voltage -480 256 R0
SYMATTR InstName V1
SYMATTR Value 400
SYMBOL ind2 -288 352 M180
WINDOW 0 36 80 Left 2
WINDOW 3 36 40 Left 2
SYMATTR InstName L1
SYMATTR Value 1.235m
SYMATTR Type ind
SYMATTR SpiceLine Rser=1m
SYMBOL ind2 32 80 M0
SYMATTR InstName L2
SYMATTR Value 2.14µ
SYMATTR Type ind
SYMATTR SpiceLine Rser=1m
SYMBOL ind2 32 272 M0
SYMATTR InstName L3
SYMATTR Value 0.714µ
SYMATTR Type ind
SYMATTR SpiceLine Rpar=1m
SYMBOL ind2 32 480 M0
SYMATTR InstName L4
SYMATTR Value 0.486µ
SYMATTR Type ind
SYMATTR SpiceLine Rser=1m
SYMBOL sw -272 480 M180
SYMATTR InstName S1
SYMBOL voltage -400 400 R0
WINDOW 3 -319 55 Left 2
WINDOW 123 0 0 Left 0
WINDOW 39 0 0 Left 0
SYMATTR Value PULSE(0 1 0 0 0 5u 10u)
SYMATTR InstName V2
SYMBOL res 240 80 R0
SYMATTR InstName R1
SYMATTR Value 428.6m
SYMBOL res 240 272 R0
SYMATTR InstName R2
SYMATTR Value 142.9m
SYMBOL res 240 480 R0
SYMATTR InstName R3
SYMATTR Value 97.1m
SYMBOL cap 144 512 R0
SYMATTR InstName C1
SYMATTR Value 3.4m
SYMBOL cap 144 304 R0
SYMATTR InstName C2
SYMATTR Value 3.5m
SYMBOL cap 144 96 R0
SYMATTR InstName C3
SYMATTR Value 1.17m
SYMBOL diode 48 80 R270
WINDOW 0 32 32 VTop 2
WINDOW 3 0 32 VBottom 2
SYMATTR InstName D1
SYMBOL diode 48 272 R270
WINDOW 0 32 32 VTop 2
WINDOW 3 0 32 VBottom 2
SYMATTR InstName D2
SYMBOL diode 48 480 R270
WINDOW 0 32 32 VTop 2
WINDOW 3 0 32 VBottom 2
SYMATTR InstName D3
TEXT -256 24 Left 2 !K L1 L2 L3 L4 0.99
