Version 4
SHEET 1 18456 1128
WIRE -560 -1056 -576 -1056
WIRE -496 -1056 -560 -1056
WIRE -368 -1056 -432 -1056
WIRE -272 -1056 -304 -1056
WIRE -192 -1056 -272 -1056
WIRE -32 -1056 -128 -1056
WIRE 112 -1056 32 -1056
WIRE 160 -1056 112 -1056
WIRE 336 -1056 320 -1056
WIRE 432 -1056 336 -1056
WIRE 560 -1056 496 -1056
WIRE 688 -1056 624 -1056
WIRE 928 -1056 800 -1056
WIRE 1104 -1056 1024 -1056
WIRE 1120 -1056 1104 -1056
WIRE 1648 -1056 1632 -1056
WIRE 1712 -1056 1648 -1056
WIRE 1856 -1056 1776 -1056
WIRE 1952 -1056 1920 -1056
WIRE 2032 -1056 1952 -1056
WIRE 2192 -1056 2096 -1056
WIRE 2304 -1056 2256 -1056
WIRE 2576 -1056 2416 -1056
WIRE 2816 -1056 2672 -1056
WIRE 2848 -1056 2816 -1056
WIRE -576 -1024 -576 -1056
WIRE 1632 -1024 1632 -1056
WIRE -272 -960 -272 -1056
WIRE -256 -960 -272 -960
WIRE -96 -960 -192 -960
WIRE 0 -960 0 -1024
WIRE 0 -960 -32 -960
WIRE 1952 -960 1952 -1056
WIRE 1968 -960 1952 -960
WIRE 2128 -960 2032 -960
WIRE 2224 -960 2224 -1024
WIRE 2224 -960 2192 -960
WIRE 464 -944 464 -1024
WIRE 592 -928 592 -1024
WIRE 464 -912 464 -944
WIRE 592 -912 592 -928
WIRE -576 -896 -576 -944
WIRE -464 -896 -464 -1024
WIRE 1632 -896 1632 -944
WIRE 1744 -896 1744 -1024
WIRE -464 -848 -464 -896
WIRE 1744 -848 1744 -896
WIRE 2336 -784 2176 -784
WIRE 2416 -784 2400 -784
WIRE 2800 -784 2416 -784
WIRE 528 -752 -240 -752
WIRE 2176 -752 2176 -784
WIRE 2416 -752 2416 -784
WIRE 2800 -752 2800 -784
WIRE 1888 -736 1120 -736
WIRE -544 -688 -720 -688
WIRE -48 -688 -544 -688
WIRE 816 -672 640 -672
WIRE 1312 -672 816 -672
WIRE -720 -656 -720 -688
WIRE -48 -640 -48 -688
WIRE 640 -640 640 -672
WIRE 2416 -640 2416 -688
WIRE 2800 -640 2800 -672
WIRE 2800 -640 2416 -640
WIRE 2960 -640 2800 -640
WIRE 1312 -624 1312 -672
WIRE -240 -592 -240 -752
WIRE -208 -592 -240 -592
WIRE 336 -592 112 -592
WIRE 528 -592 528 -752
WIRE 528 -592 416 -592
WIRE 1120 -576 1120 -736
WIRE 1152 -576 1120 -576
WIRE 1696 -576 1472 -576
WIRE 1888 -576 1888 -736
WIRE 1888 -576 1776 -576
WIRE -720 -528 -720 -576
WIRE 640 -528 640 -560
WIRE 2176 -528 2176 -672
WIRE 2336 -528 2176 -528
WIRE 2416 -528 2400 -528
WIRE 2800 -528 2416 -528
WIRE 528 -512 528 -592
WIRE -544 -496 -544 -688
WIRE -208 -496 -544 -496
WIRE 192 -496 112 -496
WIRE 352 -496 272 -496
WIRE 384 -496 352 -496
WIRE 1888 -496 1888 -576
WIRE 2176 -496 2176 -528
WIRE 2800 -496 2800 -528
WIRE 816 -480 816 -672
WIRE 1152 -480 816 -480
WIRE 1552 -480 1472 -480
WIRE 1712 -480 1632 -480
WIRE 1744 -480 1712 -480
WIRE 2416 -480 2416 -528
WIRE -544 -432 -544 -496
WIRE -656 -416 -688 -416
WIRE -576 -416 -656 -416
WIRE 816 -416 816 -480
WIRE -352 -400 -512 -400
WIRE -208 -400 -352 -400
WIRE 192 -400 112 -400
WIRE 704 -400 672 -400
WIRE 784 -400 704 -400
WIRE -832 -384 -848 -384
WIRE -576 -384 -832 -384
WIRE 1008 -384 848 -384
WIRE 1152 -384 1008 -384
WIRE 1552 -384 1472 -384
WIRE 2416 -384 2416 -416
WIRE 2800 -384 2800 -416
WIRE 2800 -384 2416 -384
WIRE 2960 -384 2960 -640
WIRE 2960 -384 2800 -384
WIRE 624 -368 608 -368
WIRE 784 -368 624 -368
WIRE -352 -352 -352 -400
WIRE 1008 -336 1008 -384
WIRE 2176 -272 2176 -416
WIRE 2336 -272 2176 -272
WIRE 2416 -272 2400 -272
WIRE 2800 -272 2416 -272
WIRE -544 -240 -544 -368
WIRE -464 -240 -544 -240
WIRE -352 -240 -352 -272
WIRE -352 -240 -384 -240
WIRE -240 -240 -352 -240
WIRE -224 -240 -240 -240
WIRE 2176 -240 2176 -272
WIRE 2800 -240 2800 -272
WIRE -48 -224 -48 -352
WIRE 192 -224 192 -400
WIRE 192 -224 -48 -224
WIRE 528 -224 528 -432
WIRE 528 -224 192 -224
WIRE 2416 -224 2416 -272
WIRE 816 -208 816 -352
WIRE 880 -208 816 -208
WIRE 1008 -208 1008 -256
WIRE 1008 -208 960 -208
WIRE 1120 -208 1008 -208
WIRE 1136 -208 1120 -208
WIRE 1312 -208 1312 -336
WIRE 1552 -208 1552 -384
WIRE 1552 -208 1312 -208
WIRE 1888 -208 1888 -416
WIRE 1888 -208 1552 -208
WIRE -544 -192 -544 -240
WIRE -48 -176 -48 -224
WIRE 816 -160 816 -208
WIRE 1312 -160 1312 -208
WIRE 2176 -112 2176 -160
WIRE 2416 -112 2416 -160
WIRE 2416 -112 2176 -112
WIRE 2800 -112 2800 -160
WIRE 2800 -112 2416 -112
WIRE 2960 -112 2960 -384
WIRE 2960 -112 2800 -112
WIRE 3024 -112 2960 -112
WIRE 176 -96 64 -96
WIRE 368 -96 240 -96
WIRE 544 -96 432 -96
WIRE 592 -96 544 -96
WIRE 3024 -80 3024 -112
WIRE 2800 0 2416 0
WIRE 2960 0 2960 -112
WIRE 2960 0 2800 0
WIRE -352 16 -512 16
WIRE -208 16 -352 16
WIRE -64 16 -208 16
WIRE 64 16 64 -96
WIRE 64 16 -64 16
WIRE 96 16 64 16
WIRE 208 16 208 -64
WIRE 208 16 176 16
WIRE 240 16 208 16
WIRE 448 16 320 16
WIRE 544 16 448 16
WIRE 704 16 608 16
WIRE 848 16 704 16
WIRE 944 16 848 16
WIRE 992 16 944 16
WIRE 1536 16 992 16
WIRE -512 32 -512 16
WIRE -352 32 -352 16
WIRE 2176 32 2176 -112
WIRE 2800 32 2800 0
WIRE 1536 48 1536 16
WIRE 2416 48 2416 0
WIRE -64 80 -64 16
WIRE 992 96 992 16
WIRE -512 112 -512 96
WIRE -512 112 -720 112
WIRE 448 112 448 16
WIRE -720 144 -720 112
WIRE 704 144 704 16
WIRE 848 144 848 16
WIRE 2176 144 2176 112
WIRE 2336 144 2176 144
WIRE 2416 144 2416 112
WIRE 2416 144 2400 144
WIRE 2800 144 2800 112
WIRE 2800 144 2416 144
WIRE -208 176 -208 16
WIRE 1536 176 1536 128
WIRE -64 192 -64 160
WIRE 32 192 -64 192
WIRE 64 192 32 192
WIRE 304 192 256 192
WIRE 400 192 304 192
WIRE 1536 208 1536 176
WIRE -64 224 -64 192
WIRE 992 224 992 176
WIRE 1152 224 992 224
WIRE 1168 224 1152 224
WIRE -720 256 -720 224
WIRE -352 256 -352 96
WIRE -352 256 -720 256
WIRE 992 256 992 224
WIRE 2800 256 2416 256
WIRE 2960 256 2960 0
WIRE 2960 256 2800 256
WIRE -512 272 -512 112
WIRE -352 272 -352 256
WIRE 1344 288 1296 288
WIRE 1488 288 1344 288
WIRE 2176 288 2176 144
WIRE 2416 288 2416 256
WIRE 2800 288 2800 256
WIRE -512 400 -512 336
WIRE -352 400 -352 336
WIRE -352 400 -512 400
WIRE -208 400 -208 240
WIRE -208 400 -352 400
WIRE -64 400 -64 304
WIRE -64 400 -208 400
WIRE 448 400 448 208
WIRE 448 400 -64 400
WIRE 704 400 704 208
WIRE 704 400 448 400
WIRE 848 400 848 208
WIRE 848 400 704 400
WIRE 992 400 992 336
WIRE 992 400 848 400
WIRE 1536 400 1536 304
WIRE 2176 400 2176 368
WIRE 2336 400 2176 400
WIRE 2416 400 2416 352
WIRE 2416 400 2400 400
WIRE 2800 400 2800 368
WIRE 2800 400 2416 400
WIRE -208 496 -208 400
FLAG 944 16 Vout
FLAG 304 192 PWMdrivePFC
FLAG 352 -496 PWMdrivePFC
FLAG -208 496 0
FLAG 112 -1056 Control
FLAG 1152 224 Vcontrol
FLAG -464 -896 Vcontrol
FLAG -544 -192 0
FLAG -240 -240 FeedbackPFC
FLAG -656 -416 FeedbackPFC
FLAG -48 -176 0
FLAG 32 192 ACRef
FLAG 464 -944 Control
FLAG 336 -1056 ACRef
FLAG 592 -928 IndCurrent
FLAG 544 -96 IndCurrent
FLAG 1104 -1056 PWMPFC
FLAG -832 -384 PWMPFC
FLAG -560 -1056 DC5V
FLAG -720 -528 0
FLAG -576 -896 0
FLAG 2176 -784 E2_+12
FLAG 2176 -528 E2_+5
FLAG 2176 -272 E2_33
FLAG 2800 -784 Vout_+12
FLAG 2800 -528 Vout_+5
FLAG 2800 -272 Vout_33
FLAG 2176 144 E2_-5
FLAG 2800 144 Vout_-5
FLAG 2176 400 E2_-12
FLAG 2800 400 Vout_-12
FLAG 3024 -80 0
FLAG 1344 288 PWMDriveFly
FLAG 1536 176 Vin
FLAG 1712 -480 PWMdriveFly
FLAG 624 -368 PWMfly
FLAG 816 -160 0
FLAG 1120 -208 FeedbackFly
FLAG 704 -400 FeedbackFly
FLAG 1312 -160 0
FLAG 2816 -1056 PWMfly
FLAG 1744 -896 Vout_33
FLAG 1648 -1056 DC3.3V
FLAG 1632 -896 0
FLAG 640 -528 0
FLAG 1536 400 0
SYMBOL ind2 224 32 R270
WINDOW 0 32 56 VTop 2
WINDOW 3 5 56 VBottom 2
SYMATTR InstName L1
SYMATTR Value 3.135m
SYMATTR SpiceLine Rser=0.0033
SYMATTR Type ind
SYMBOL diode 544 32 R270
WINDOW 0 32 32 VTop 2
WINDOW 3 0 32 VBottom 2
SYMATTR InstName D1
SYMATTR Value RFUS20TF6S
SYMBOL cap 688 144 R0
SYMATTR InstName C3
SYMATTR Value 680µ
SYMATTR SpiceLine V=450 Rser=110m
SYMBOL PowerProducts\\LTC4441-1 -48 -496 R0
SYMATTR InstName U3
SYMBOL res 432 -608 R90
WINDOW 0 0 56 VBottom 2
WINDOW 3 32 56 VTop 2
SYMATTR InstName R3
SYMATTR Value 300k
SYMBOL res 544 -416 R180
WINDOW 0 36 76 Left 2
WINDOW 3 36 40 Left 2
SYMATTR InstName R4
SYMATTR Value 45k
SYMBOL res 288 -512 R90
WINDOW 0 0 56 VBottom 2
WINDOW 3 32 56 VTop 2
SYMATTR InstName R7
SYMATTR Value 100
SYMBOL nmos 400 112 R0
SYMATTR InstName M1
SYMATTR Value R6015KNZ
SYMBOL LTspiceControlLibrary\\Math\\Operands\\sub -480 -1024 R0
SYMATTR InstName U2
SYMBOL LTspiceControlLibrary\\TransferFunctions\\Proportional -352 -1024 R0
SYMATTR InstName U4
SYMATTR Value K=50
SYMBOL LTspiceControlLibrary\\Math\\Operands\\add -16 -1024 R0
SYMATTR InstName U5
SYMBOL LTspiceControlLibrary\\TransferFunctions\\Proportional -176 -1024 R0
SYMATTR Value K=0.00015
SYMATTR InstName U6
SYMBOL LTspiceControlLibrary\\TransferFunctions\\Proportional -240 -928 R0
SYMATTR InstName U8
SYMATTR Value K=0.9
SYMBOL LTspiceControlLibrary\\TransferFunctions\\Integral -80 -928 R0
SYMATTR InstName U9
SYMBOL res 976 80 R0
SYMATTR InstName R5
SYMATTR Value 243.91Meg
SYMBOL res 976 240 R0
SYMATTR InstName R6
SYMATTR Value 3.09Meg
SYMBOL OpAmps\\LT1805 -544 -400 R0
SYMATTR InstName U10
SYMBOL res -368 -368 R0
SYMATTR InstName R8
SYMATTR Value 1k
SYMBOL res -368 -256 R90
WINDOW 0 0 56 VBottom 2
WINDOW 3 32 56 VTop 2
SYMATTR InstName R9
SYMATTR Value 500
SYMBOL voltage -720 128 R0
WINDOW 123 0 0 Left 0
WINDOW 39 0 0 Left 0
SYMATTR InstName ACin
SYMATTR Value SINE(0 230 50)
SYMBOL diode -496 96 R180
WINDOW 0 24 64 Left 2
WINDOW 3 24 0 Left 2
SYMATTR InstName D2
SYMATTR Value RFUS20TF6S
SYMBOL diode -336 96 R180
WINDOW 0 24 64 Left 2
WINDOW 3 24 0 Left 2
SYMATTR InstName D3
SYMATTR Value RFUS20TF6S
SYMBOL diode -496 336 R180
WINDOW 0 24 64 Left 2
WINDOW 3 24 0 Left 2
SYMATTR InstName D4
SYMATTR Value RFUS20TF6S
SYMBOL diode -336 336 R180
WINDOW 0 24 64 Left 2
WINDOW 3 24 0 Left 2
SYMATTR InstName D5
SYMATTR Value RFUS20TF6S
SYMBOL res -80 64 R0
SYMATTR InstName R12
SYMATTR Value 22900k
SYMBOL res -80 208 R0
SYMATTR InstName R13
SYMATTR Value 100k
SYMBOL LTspiceControlLibrary\\Math\\Operands\\mul 448 -1024 R0
SYMATTR InstName U11
SYMBOL res 192 0 R90
WINDOW 0 0 56 VBottom 2
WINDOW 3 32 56 VTop 2
SYMATTR InstName R10
SYMATTR Value 0.01
SYMBOL LTspiceControlLibrary\\Math\\Operands\\sub 192 -64 R0
SYMATTR InstName U12
SYMBOL LTspiceControlLibrary\\TransferFunctions\\Proportional 384 -64 R0
SYMATTR Value K=15
SYMATTR InstName U13
SYMBOL LTspiceControlLibrary\\Math\\Operands\\sub 576 -1024 R0
SYMATTR InstName U14
SYMBOL LTspiceControlLibrary\\Math\\Functions\\limit 704 -1024 R0
SYMATTR Value y=-29m z=29m
SYMATTR InstName U15
SYMBOL LTspiceControlLibrary\\PulseModulations\\PWM 944 -1024 R0
SYMATTR Value Vin1=-30m Vin2=30m Tperiod=10u
SYMATTR InstName U16
SYMBOL cap -224 176 R0
SYMATTR InstName C1
SYMATTR Value 0.47µ
SYMATTR SpiceLine V=630 Rser=0.0363103
SYMBOL cap 832 144 R0
SYMATTR InstName C2
SYMATTR Value 680µ
SYMATTR SpiceLine V=450 Rser=110m
SYMBOL voltage -576 -1040 R0
SYMATTR InstName V2
SYMATTR Value 5
SYMBOL voltage -720 -672 R0
SYMATTR InstName V3
SYMATTR Value 10
SYMBOL ind2 2192 -768 M0
SYMATTR InstName Lsec_+12
SYMATTR Value 0.195µ
SYMATTR Type ind
SYMATTR SpiceLine Rser=1m
SYMBOL ind2 2192 -512 M0
SYMATTR InstName Lsec_+5
SYMATTR Value 14.5n
SYMATTR Type ind
SYMATTR SpiceLine Rser=1m
SYMBOL ind2 2192 -256 M0
SYMATTR InstName Lsec_33
SYMATTR Value 75n
SYMATTR Type ind
SYMATTR SpiceLine Rser=1m
SYMBOL res 2784 -768 R0
SYMATTR InstName Rload_1
SYMATTR Value 429m
SYMBOL res 2784 -512 R0
SYMATTR InstName Rload_2
SYMATTR Value 143m
SYMBOL res 2784 -256 R0
SYMATTR InstName Rload_3
SYMATTR Value 97.1m
SYMBOL cap 2400 -224 R0
SYMATTR InstName Cout_1
SYMATTR Value 3.4m
SYMBOL cap 2400 -480 R0
SYMATTR InstName Cout_2
SYMATTR Value 3.5m
SYMBOL cap 2400 -752 R0
SYMATTR InstName Cout_3
SYMATTR Value 1.2m
SYMBOL diode 2336 -768 R270
WINDOW 0 32 32 VTop 2
WINDOW 3 0 32 VBottom 2
SYMATTR InstName D6
SYMATTR Value DRBR40NS30AFH
SYMBOL diode 2336 -512 R270
WINDOW 0 32 32 VTop 2
WINDOW 3 0 32 VBottom 2
SYMATTR InstName D7
SYMATTR Value DRBR40NS30AFH
SYMBOL diode 2336 -256 R270
WINDOW 0 32 32 VTop 2
WINDOW 3 0 32 VBottom 2
SYMATTR InstName D8
SYMATTR Value DRBR40NS30AFH
SYMBOL res 2784 16 R0
SYMATTR InstName Rload_4
SYMATTR Value 10
SYMBOL cap 2400 48 R0
SYMATTR InstName Cout_4
SYMATTR Value 50µ
SYMBOL diode 2400 128 R90
WINDOW 0 0 32 VBottom 2
WINDOW 3 32 32 VTop 2
SYMATTR InstName D9
SYMATTR Value DRBR40NS30AFH
SYMBOL res 2784 272 R0
SYMATTR InstName Rload_5
SYMATTR Value 12
SYMBOL cap 2400 288 R0
SYMATTR InstName Cout_5
SYMATTR Value 41.7µ
SYMBOL diode 2400 384 R90
WINDOW 0 0 32 VBottom 2
WINDOW 3 32 32 VTop 2
SYMATTR InstName D10
SYMATTR Value DRBR40NS30AFH
SYMBOL ind2 2192 16 M0
SYMATTR InstName Lsec_-5
SYMATTR Value 0.105µ
SYMATTR Type ind
SYMATTR SpiceLine Rser=1m
SYMBOL ind2 2192 272 M0
SYMATTR InstName Lsec_-12
SYMATTR Value 0.175µ
SYMATTR Type ind
SYMATTR SpiceLine Rser=1m
SYMBOL ind2 1520 144 M180
WINDOW 0 36 80 Left 2
WINDOW 3 36 40 Left 2
SYMATTR InstName Lprim
SYMATTR Value 1.1m
SYMATTR Type ind
SYMATTR SpiceLine Rser=1m
SYMBOL nmos 1488 208 R0
SYMATTR InstName M2
SYMATTR Value R6530KNZ
SYMBOL PowerProducts\\LTC4441-1 1312 -480 R0
SYMATTR InstName U1
SYMBOL res 1792 -592 R90
WINDOW 0 0 56 VBottom 2
WINDOW 3 32 56 VTop 2
SYMATTR InstName R1
SYMATTR Value 300k
SYMBOL res 1904 -400 R180
WINDOW 0 36 76 Left 2
WINDOW 3 36 40 Left 2
SYMATTR InstName R2
SYMATTR Value 45k
SYMBOL res 1648 -496 R90
WINDOW 0 0 56 VBottom 2
WINDOW 3 32 56 VTop 2
SYMATTR InstName R11
SYMATTR Value 100
SYMBOL OpAmps\\LT1805 816 -384 R0
SYMATTR InstName U7
SYMBOL res 992 -352 R0
SYMATTR InstName R14
SYMATTR Value 1k
SYMBOL res 976 -224 R90
WINDOW 0 0 56 VBottom 2
WINDOW 3 32 56 VTop 2
SYMATTR InstName R15
SYMATTR Value 500
SYMBOL LTspiceControlLibrary\\PulseModulations\\PWM 2592 -1024 R0
SYMATTR Value Vin1=-30m Vin2=30m Tperiod=10u
SYMATTR InstName U17
SYMBOL LTspiceControlLibrary\\Math\\Operands\\sub 1728 -1024 R0
SYMATTR InstName U18
SYMBOL LTspiceControlLibrary\\TransferFunctions\\Proportional 1872 -1024 R0
SYMATTR InstName U19
SYMBOL LTspiceControlLibrary\\Math\\Operands\\add 2208 -1024 R0
SYMATTR InstName U20
SYMBOL LTspiceControlLibrary\\TransferFunctions\\Proportional 2048 -1024 R0
SYMATTR Value K=0.0004
SYMATTR InstName U21
SYMBOL LTspiceControlLibrary\\Math\\Functions\\limit 2320 -1024 R0
SYMATTR Value y=-29m z=29m
SYMATTR InstName U22
SYMBOL LTspiceControlLibrary\\TransferFunctions\\Proportional 1984 -928 R0
SYMATTR Value K=10
SYMATTR InstName U23
SYMBOL LTspiceControlLibrary\\TransferFunctions\\Integral 2144 -928 R0
SYMATTR InstName U24
SYMBOL voltage 1632 -1040 R0
SYMATTR InstName V4
SYMATTR Value 3.3
SYMBOL voltage 640 -656 R0
SYMATTR InstName V5
SYMATTR Value 10
TEXT -88 472 Left 2 !.tran 0 1 0
TEXT -1320 -728 Left 2 !.MODEL R6015KNZ NMOS\n+ LEVEL=3\n+ L=2.0000E-6\n+ W=1\n+ KP=29.715E-6\n+ RS=15.800E-3\n+ RD=0\n+ VTO=4.4948\n+ RDS=6.0000E6\n+ TOX=2.0000E-6\n+ CGSO=1000p\n+ CGDO=1.5p\n+ CBD=0\n+ RG=0\n+ N=2\n+ RB=1.0000E-3\n+ GAMMA=2.7\n+ ETA=0.00005\n+ KAPPA=0\n+ NFS=22G
TEXT -1304 -1400 Left 2 !.MODEL R6530KNZ NMOS\n+ LEVEL=3\n+ L=2.0000E-6\n+ W=1\n+ KP=118.00E-6\n+ RS=10.000E-3\n+ RD=0\n+ VTO=4.6189\n+ RDS=6.5000E6\n+ TOX=2.0000E-6\n+ CGSO=2245p\n+ CGDO=5p\n+ CBD=0\n+ RG=0\n+ N=2\n+ RB=1.0000E-3\n+ GAMMA=2.6\n+ ETA=0.1500E-3\n+ KAPPA=0\n+ NFS=24G
TEXT -1320 -120 Left 2 !.MODEL DRBR40NS30AFH D\n+ IS=1.0341E-6\n+ N=0.8185\n+ RS=3.7552E-3\n+ IKF=141.25E-3\n+ XTI=2.0\n+ EG=0.676\n+ CJO=3.4300E-9\n+ M=0.5308\n+ VJ=0.5031\n+ ISR=16.025E-6\n+ NR=1.2120\n+ BV=30\n+ TRS1=1.8511E-3
TEXT -696 -1400 Left 2 !K Lprim Lsec_+12 Lsec_-12 Lsec_+5 Lsec_-5 Lsec_33 0.99
TEXT 192 -1464 Left 2 !.SAVE\n+ V(Vout_+12) \n+ V(Vout_+5) \n+ V(Vout_33) \n+ V(Vout_-5) \n+ V(Vout_-12) \n+ V(ACin)\n+ V(Vout)\n+ I(Lprim) \n+ I(L1)\n+ I(ACin)\n+ dialogbox
