Version 4
SHEET 1 1868 680
WIRE 240 16 48 16
WIRE 544 16 320 16
WIRE 656 16 544 16
WIRE 720 16 656 16
WIRE 1024 16 784 16
WIRE 1264 16 1024 16
WIRE 48 128 48 16
WIRE 544 144 544 16
WIRE 1024 144 1024 16
WIRE 1264 144 1264 16
WIRE 496 160 336 160
WIRE 496 208 448 208
WIRE 448 256 448 208
WIRE 48 400 48 208
WIRE 336 400 336 160
WIRE 336 400 48 400
WIRE 448 400 448 336
WIRE 448 400 336 400
WIRE 544 400 544 224
WIRE 544 400 448 400
WIRE 1024 400 1024 208
WIRE 1024 400 544 400
WIRE 1264 400 1264 224
WIRE 1264 400 1024 400
WIRE 48 448 48 400
FLAG 1264 16 Vout
FLAG 48 448 0
FLAG 656 16 Vin
FLAG 448 208 VSwitch
FLAG 48 16 DCin
SYMBOL voltage 48 112 R0
WINDOW 123 0 0 Left 0
WINDOW 39 0 0 Left 0
SYMATTR InstName DCin
SYMATTR Value 100
SYMBOL ind 224 32 R270
WINDOW 0 32 56 VTop 2
WINDOW 3 5 56 VBottom 2
SYMATTR InstName L1
SYMATTR Value 5.93m
SYMBOL diode 720 32 R270
WINDOW 0 32 32 VTop 2
WINDOW 3 0 32 VBottom 2
SYMATTR InstName D1
SYMBOL cap 1008 144 R0
SYMATTR InstName C1
SYMATTR Value 630n
SYMBOL res 1248 128 R0
SYMATTR InstName RLoad
SYMATTR Value 467
SYMBOL sw 544 128 R0
SYMATTR InstName S1
SYMATTR Value Switch1
SYMBOL voltage 448 240 R0
WINDOW 123 0 0 Left 0
WINDOW 39 0 0 Left 0
SYMATTR InstName Vswitch
SYMATTR Value PULSE(0 1 0 0 0 7.5u 10u)
TEXT 24 536 Left 2 !.tran 0 .02 0
TEXT 24 592 Left 2 !.model Switch1 SW(Ron=1 Roff=1Meg Vt=0.5 Vh=-0.4)
TEXT 1064 520 Left 2 !.meas voutmax max v(vout)
TEXT 1072 560 Left 2 !.meas voutavg avg v(vout) FROM 0.015 TO 0.02
