Version 4
SHEET 1 2928 1024
WIRE 240 16 48 16
WIRE 544 16 320 16
WIRE 656 16 544 16
WIRE 720 16 656 16
WIRE 1024 16 784 16
WIRE 1216 16 1024 16
WIRE 1392 16 1216 16
WIRE 1600 16 1392 16
WIRE 544 48 544 16
WIRE 48 128 48 16
WIRE 496 128 256 128
WIRE 1024 144 1024 16
WIRE 1216 144 1216 16
WIRE 1392 144 1392 16
WIRE 1600 144 1600 16
WIRE 256 256 256 128
WIRE 48 400 48 208
WIRE 256 400 256 336
WIRE 256 400 48 400
WIRE 544 400 544 144
WIRE 544 400 256 400
WIRE 1024 400 1024 208
WIRE 1024 400 544 400
WIRE 1216 400 1216 208
WIRE 1216 400 1024 400
WIRE 1392 400 1392 208
WIRE 1392 400 1216 400
WIRE 1600 400 1600 224
WIRE 1600 400 1392 400
WIRE 48 448 48 400
FLAG 1600 16 Vout
FLAG 48 448 0
FLAG 656 16 Vin
FLAG 48 16 DCin
SYMBOL voltage 48 112 R0
WINDOW 123 0 0 Left 0
WINDOW 39 0 0 Left 0
SYMATTR InstName DCin
SYMATTR Value 100
SYMBOL ind2 224 32 R270
WINDOW 0 32 56 VTop 2
WINDOW 3 5 56 VBottom 2
SYMATTR InstName L1
SYMATTR Value 3.135m
SYMATTR SpiceLine Rser=0.0033
SYMATTR Type ind
SYMBOL diode 720 32 R270
WINDOW 0 32 32 VTop 2
WINDOW 3 0 32 VBottom 2
SYMATTR InstName D1
SYMATTR Value DRFN10NS4S
SYMBOL res 1584 128 R0
SYMATTR InstName RLoad
SYMATTR Value 247
SYMBOL voltage 256 240 R0
WINDOW 123 0 0 Left 0
WINDOW 39 0 0 Left 0
SYMATTR InstName Vswitch
SYMATTR Value PULSE(0 15 0 1p 1p 7.5u 10u)
SYMBOL nmos 496 48 R0
SYMATTR InstName M1
SYMATTR Value R6020PNJ
SYMBOL cap 1376 144 R0
SYMATTR InstName C2
SYMATTR Value 0.47µ
SYMATTR SpiceLine V=630 Irms=0 Rser=0.0333146 Lser=13.2945n mfg="Würth Elektronik" pn="890303326009CS WCAP-FTBP 22.5 x 26 x 18 x 9" type="Box"
SYMBOL cap 1200 144 R0
SYMATTR InstName C1
SYMATTR Value 0.47µ
SYMATTR SpiceLine V=630 Irms=0 Rser=0.0333146 Lser=13.2945n mfg="Würth Elektronik" pn="890303326009CS WCAP-FTBP 22.5 x 26 x 18 x 9" type="Box"
SYMBOL cap 1008 144 R0
SYMATTR InstName C3
SYMATTR Value 0.47µ
SYMATTR SpiceLine V=630 Irms=0 Rser=0.0333146 Lser=13.2945n mfg="Würth Elektronik" pn="890303326009CS WCAP-FTBP 22.5 x 26 x 18 x 9" type="Box"
TEXT 16 840 Left 2 !.tran 0 .02 0
TEXT 16 864 Left 2 !.model Switch1 SW(Ron=1 Roff=1Meg Vt=0.5 Vh=-0.4)
TEXT 664 840 Left 2 !.meas voutmax max v(vout)
TEXT 664 864 Left 2 !.meas voutavg avg v(vout) FROM 0.015 TO 0.02
TEXT 664 888 Left 2 !.meas ic_avg avg I(C1) FROM 0.015 TO 0.02
TEXT 664 912 Left 2 !.meas iRload_avg avg I(RLoad) FROM 0.015 TO 0.02
TEXT 664 936 Left 2 !.meas iL_avg avg I(L1) FROM 0.015 TO 0.02
TEXT 664 960 Left 2 !.meas settle find V(Vout) when abs(v(Vout)- voutavg)/voutavg=0.05 fall=last
TEXT 664 984 Left 2 !.meas rise time TRIG V(Vout)=(V(DCin)+0.1*(voutavg- V(DCin))) TD=0.2u RISE=1 TARG V(Vout)=(V(DCin)+0.9*(voutavg- V(DCin))) TD=0.2u RISE=1
TEXT 664 1008 Left 2 !.meas efficiency avg -V(Vout)*I(Rload)/V(DCin)/I(DCin) FROM 0.015 TO 0.02
TEXT 2048 32 Left 2 !.MODEL DRFN10NS4S D\n+ IS=3.6343E-9\n+ N=1.5946\n+ RS=11.302E-3\n+ IKF=.19239\n+ EG=1\n+ CJO=156.20E-12\n+ M=.46967\n+ VJ=.55634\n+ ISR=289.64E-12\n+ BV=430\n+ TT=39n\n+ TIKF=0.01
