Version 4
SHEET 1 4584 1024
WIRE 1072 -784 304 -784
WIRE -160 -720 -176 -720
WIRE 0 -720 -160 -720
WIRE 496 -720 0 -720
WIRE 496 -672 496 -720
WIRE 304 -624 304 -784
WIRE 336 -624 304 -624
WIRE 880 -624 656 -624
WIRE 1072 -624 1072 -784
WIRE 1072 -624 960 -624
WIRE 1072 -544 1072 -624
WIRE 0 -528 0 -720
WIRE 336 -528 0 -528
WIRE 736 -528 656 -528
WIRE 896 -528 816 -528
WIRE 928 -528 896 -528
WIRE 208 -432 128 -432
WIRE 336 -432 208 -432
WIRE 736 -432 656 -432
WIRE 128 -384 128 -432
WIRE 1072 -352 1072 -464
WIRE 128 -256 128 -304
WIRE 496 -256 496 -384
WIRE 496 -256 128 -256
WIRE 736 -256 736 -432
WIRE 736 -256 496 -256
WIRE 128 -192 128 -256
WIRE 16 16 -336 16
WIRE 240 16 16 16
WIRE 544 16 320 16
WIRE 608 16 544 16
WIRE 720 16 608 16
WIRE 1024 16 784 16
WIRE 1216 16 1024 16
WIRE 1392 16 1216 16
WIRE 1600 16 1392 16
WIRE 16 64 16 16
WIRE 544 112 544 16
WIRE -336 128 -336 16
WIRE 1024 144 1024 16
WIRE 1216 144 1216 16
WIRE 1392 144 1392 16
WIRE 1600 144 1600 16
WIRE 16 192 16 144
WIRE 144 192 16 192
WIRE 160 192 144 192
WIRE 304 192 256 192
WIRE 496 192 304 192
WIRE 16 256 16 192
WIRE -336 400 -336 208
WIRE 16 400 16 336
WIRE 16 400 -336 400
WIRE 544 400 544 208
WIRE 544 400 16 400
WIRE 1024 400 1024 208
WIRE 1024 400 544 400
WIRE 1216 400 1216 208
WIRE 1216 400 1024 400
WIRE 1392 400 1392 208
WIRE 1392 400 1216 400
WIRE 1600 400 1600 224
WIRE 1600 400 1392 400
WIRE -336 496 -336 400
FLAG 1600 16 Vout
FLAG 608 16 Vin
FLAG -336 16 DCin
FLAG 304 192 PWMdrive
FLAG 896 -528 PWMdrive
FLAG 128 -192 0
FLAG -336 496 0
FLAG 144 192 DC20v
FLAG 1072 -352 0
FLAG -160 -720 DC20v
FLAG 208 -432 PWMin
SYMBOL voltage -336 112 R0
WINDOW 123 0 0 Left 0
WINDOW 39 0 0 Left 0
SYMATTR InstName DCin
SYMATTR Value 100
SYMBOL ind2 224 32 R270
WINDOW 0 32 56 VTop 2
WINDOW 3 5 56 VBottom 2
SYMATTR InstName L1
SYMATTR Value 3.135m
SYMATTR SpiceLine Rser=0.0033
SYMATTR Type ind
SYMBOL diode 720 32 R270
WINDOW 0 32 32 VTop 2
WINDOW 3 0 32 VBottom 2
SYMATTR InstName D1
SYMATTR Value RFUS20TF6S
SYMBOL res 1584 128 R0
SYMATTR InstName RLoad1
SYMATTR Value 247
SYMBOL cap 1008 144 R0
SYMATTR InstName C3
SYMATTR Value 0.47µ
SYMATTR SpiceLine V=630 Irms=0 Rser=0.0363103 Lser=0
SYMBOL cap 1200 144 R0
SYMATTR InstName C1
SYMATTR Value 0.47µ
SYMATTR SpiceLine V=630 Irms=0 Rser=0.0363103 Lser=0
SYMBOL cap 1376 144 R0
SYMATTR InstName C2
SYMATTR Value 0.47µ
SYMATTR SpiceLine V=630 Irms=0 Rser=0.0363103 Lser=0
SYMBOL PowerProducts\\LTC4441-1 496 -528 R0
SYMATTR InstName U3
SYMBOL voltage 128 -400 R0
WINDOW 123 0 0 Left 0
WINDOW 39 0 0 Left 0
SYMATTR InstName PWM
SYMATTR Value PULSE(0 2.5 0 0 0 7.5u 10u)
SYMBOL res 0 48 R0
SYMATTR InstName R1
SYMATTR Value 2k
SYMBOL res 0 240 R0
SYMATTR InstName R2
SYMATTR Value 500
SYMBOL res 976 -640 R90
WINDOW 0 0 56 VBottom 2
WINDOW 3 32 56 VTop 2
SYMATTR InstName R3
SYMATTR Value 300k
SYMBOL res 1088 -448 R180
WINDOW 0 36 76 Left 2
WINDOW 3 36 40 Left 2
SYMATTR InstName R4
SYMATTR Value 45k
SYMBOL res 832 -544 R90
WINDOW 0 0 56 VBottom 2
WINDOW 3 32 56 VTop 2
SYMATTR InstName R7
SYMATTR Value 100
SYMBOL nmos 496 112 R0
SYMATTR InstName M1
SYMATTR Value R6009ENX
TEXT -192 488 Left 2 !.tran 0 .02 0
TEXT -192 536 Left 2 !.meas voutmax max v(vout)
TEXT -192 560 Left 2 !.meas voutavg avg v(vout) FROM 0.015 TO 0.02
TEXT -192 584 Left 2 !.meas ic_avg avg I(C1) FROM 0.015 TO 0.02
TEXT -192 608 Left 2 !.meas iRload_avg avg I(RLoad) FROM 0.015 TO 0.02
TEXT -192 632 Left 2 !.meas iL_avg avg I(L1) FROM 0.015 TO 0.02
TEXT 464 528 Left 2 !.meas settle find V(Vout) when abs(v(Vout)- voutavg)/voutavg=0.05 fall=last
TEXT 464 552 Left 2 !.meas rise time TRIG V(Vout)=(V(DCin)+0.1*(voutavg- V(DCin))) TD=0.2u RISE=1 TARG V(Vout)=(V(DCin)+0.9*(voutavg- V(DCin))) TD=0.2u RISE=1
TEXT 464 576 Left 2 !.meas efficiency avg -V(Vout)*I(Rload)/V(DCin)/I(DCin) FROM 0.015 TO 0.02
TEXT 1272 -784 Left 2 !.MODEL R6009ENX NMOS\n+ LEVEL=3\n+ L=2.0000E-6\n+ W=1\n+ KP=15.407E-6\n+ RS=10.000E-3\n+ RD=0\n+ VTO=4.5552\n+ RDS=6.0000E6\n+ TOX=2.0000E-6\n+ CGSO=500p\n+ CGDO=2p\n+ CBD=0\n+ RG=0\n+ N=2\n+ RB=1.0000E-3\n+ GAMMA=2.5\n+ ETA=0.00004\n+ KAPPA=0\n+ NFS=28G
