Version 4
SHEET 1 4584 1024
WIRE 896 -768 128 -768
WIRE 1152 -768 1136 -768
WIRE 1216 -768 1152 -768
WIRE 1312 -768 1280 -768
WIRE 1360 -768 1312 -768
WIRE 1456 -768 1424 -768
WIRE 1536 -768 1456 -768
WIRE 1696 -768 1600 -768
WIRE 1808 -768 1760 -768
WIRE 2000 -768 1920 -768
WIRE 2080 -768 2000 -768
WIRE 2320 -768 2176 -768
WIRE 2352 -768 2320 -768
WIRE -336 -704 -352 -704
WIRE -176 -704 -336 -704
WIRE 320 -704 -176 -704
WIRE 1456 -672 1456 -768
WIRE 1472 -672 1456 -672
WIRE 1632 -672 1536 -672
WIRE 1728 -672 1728 -736
WIRE 1728 -672 1696 -672
WIRE 320 -656 320 -704
WIRE 128 -608 128 -768
WIRE 160 -608 128 -608
WIRE 704 -608 480 -608
WIRE 896 -608 896 -768
WIRE 896 -608 784 -608
WIRE 1248 -608 1248 -736
WIRE 1248 -560 1248 -608
WIRE 896 -528 896 -608
WIRE -176 -512 -176 -704
WIRE 160 -512 -176 -512
WIRE 560 -512 480 -512
WIRE 720 -512 640 -512
WIRE 752 -512 720 -512
WIRE 32 -416 -48 -416
WIRE 160 -416 32 -416
WIRE 560 -416 480 -416
WIRE 1264 -368 1264 -400
WIRE 1264 -320 1264 -368
WIRE 1152 -304 1120 -304
WIRE 1232 -304 1152 -304
WIRE 1456 -288 1296 -288
WIRE 1552 -288 1456 -288
WIRE 1584 -288 1552 -288
WIRE 1072 -272 1056 -272
WIRE 1232 -272 1072 -272
WIRE 320 -240 320 -368
WIRE 560 -240 560 -416
WIRE 560 -240 320 -240
WIRE 896 -240 896 -448
WIRE 896 -240 560 -240
WIRE 1456 -240 1456 -288
WIRE 320 -192 320 -240
WIRE 1264 -128 1264 -256
WIRE 1344 -128 1264 -128
WIRE 1456 -128 1456 -160
WIRE 1456 -128 1424 -128
WIRE 1568 -128 1456 -128
WIRE 1584 -128 1568 -128
WIRE 1264 -80 1264 -128
WIRE 16 16 -336 16
WIRE 240 16 16 16
WIRE 544 16 320 16
WIRE 608 16 544 16
WIRE 720 16 608 16
WIRE 1024 16 784 16
WIRE 1216 16 1024 16
WIRE 1392 16 1216 16
WIRE 1600 16 1392 16
WIRE 1760 16 1600 16
WIRE 1776 16 1760 16
WIRE 16 64 16 16
WIRE 1600 96 1600 16
WIRE 544 112 544 16
WIRE -336 128 -336 16
WIRE 1024 144 1024 16
WIRE 1216 144 1216 16
WIRE 1392 144 1392 16
WIRE 16 192 16 144
WIRE 144 192 16 192
WIRE 160 192 144 192
WIRE 304 192 256 192
WIRE 496 192 304 192
WIRE 1600 224 1600 176
WIRE 1760 224 1600 224
WIRE 1776 224 1760 224
WIRE 16 256 16 192
WIRE 1600 256 1600 224
WIRE -336 400 -336 208
WIRE 16 400 16 336
WIRE 16 400 -336 400
WIRE 544 400 544 208
WIRE 544 400 16 400
WIRE 1024 400 1024 208
WIRE 1024 400 544 400
WIRE 1216 400 1216 208
WIRE 1216 400 1024 400
WIRE 1392 400 1392 208
WIRE 1392 400 1216 400
WIRE 1600 400 1600 336
WIRE 1600 400 1392 400
WIRE -336 496 -336 400
FLAG 1760 16 Vout
FLAG 608 16 Vin
FLAG -336 16 DCin
FLAG 304 192 PWMdrive
FLAG 720 -512 PWMdrive
FLAG -336 496 0
FLAG 144 192 DC20v
FLAG -336 -704 DC20v
FLAG 32 -416 PWMin
FLAG 1312 -768 Error
FLAG 2320 -768 PWM
FLAG 2000 -768 Control
FLAG 1760 224 Vcontrol
FLAG 1248 -608 Vcontrol
FLAG 1264 -368 DC20v
FLAG 1072 -272 PWM
FLAG 1264 -80 0
FLAG 1568 -128 Feedback
FLAG 1152 -304 Feedback
FLAG 1552 -288 PWMin
FLAG 1152 -768 DC20v
FLAG 320 -192 0
SYMBOL voltage -336 112 R0
WINDOW 123 0 0 Left 0
WINDOW 39 0 0 Left 0
SYMATTR InstName DCin
SYMATTR Value 100
SYMBOL ind2 224 32 R270
WINDOW 0 32 56 VTop 2
WINDOW 3 5 56 VBottom 2
SYMATTR InstName L1
SYMATTR Value 3.135m
SYMATTR SpiceLine Rser=0.0033
SYMATTR Type ind
SYMBOL diode 720 32 R270
WINDOW 0 32 32 VTop 2
WINDOW 3 0 32 VBottom 2
SYMATTR InstName D1
SYMATTR Value RFUS20TF6S
SYMBOL cap 1008 144 R0
SYMATTR InstName C3
SYMATTR Value 0.47µ
SYMATTR SpiceLine V=630 Irms=0 Rser=0.0363103 Lser=0
SYMBOL cap 1200 144 R0
SYMATTR InstName C1
SYMATTR Value 0.47µ
SYMATTR SpiceLine V=630 Irms=0 Rser=0.0363103 Lser=0
SYMBOL cap 1376 144 R0
SYMATTR InstName C2
SYMATTR Value 0.47µ
SYMATTR SpiceLine V=630 Irms=0 Rser=0.0363103 Lser=0
SYMBOL PowerProducts\\LTC4441-1 320 -512 R0
SYMATTR InstName U3
SYMBOL res 0 48 R0
SYMATTR InstName R1
SYMATTR Value 2k
SYMBOL res 0 240 R0
SYMATTR InstName R2
SYMATTR Value 500
SYMBOL res 800 -624 R90
WINDOW 0 0 56 VBottom 2
WINDOW 3 32 56 VTop 2
SYMATTR InstName R3
SYMATTR Value 300k
SYMBOL res 912 -432 R180
WINDOW 0 36 76 Left 2
WINDOW 3 36 40 Left 2
SYMATTR InstName R4
SYMATTR Value 45k
SYMBOL res 656 -528 R90
WINDOW 0 0 56 VBottom 2
WINDOW 3 32 56 VTop 2
SYMATTR InstName R7
SYMATTR Value 100
SYMBOL nmos 496 112 R0
SYMATTR InstName M1
SYMATTR Value R6009ENX
SYMBOL LTspiceControlLibrary\\PulseModulations\\PWM 2096 -736 R0
SYMATTR Value Vin1=-30m Vin2=30m Tperiod=10u
SYMATTR InstName U1
SYMBOL LTspiceControlLibrary\\Math\\Operands\\sub 1232 -736 R0
SYMATTR InstName U2
SYMBOL LTspiceControlLibrary\\TransferFunctions\\Proportional 1376 -736 R0
SYMATTR InstName U4
SYMBOL LTspiceControlLibrary\\Math\\Operands\\add 1712 -736 R0
SYMATTR InstName U5
SYMBOL LTspiceControlLibrary\\TransferFunctions\\Proportional 1552 -736 R0
SYMATTR Value K=0.000152
SYMATTR InstName U6
SYMBOL LTspiceControlLibrary\\Math\\Functions\\limit 1824 -736 R0
SYMATTR Value y=-30m z=30m
SYMATTR InstName U7
SYMBOL LTspiceControlLibrary\\TransferFunctions\\Proportional 1488 -640 R0
SYMATTR Value K=0.85533
SYMATTR InstName U8
SYMBOL LTspiceControlLibrary\\TransferFunctions\\Integral 1648 -640 R0
SYMATTR InstName U9
SYMBOL res 1584 80 R0
SYMATTR InstName R5
SYMATTR Value 234.65
SYMBOL res 1584 240 R0
SYMATTR InstName R6
SYMATTR Value 12.35
SYMBOL OpAmps\\LT1805 1264 -288 R0
SYMATTR InstName U10
SYMBOL res 1440 -256 R0
SYMATTR InstName R8
SYMATTR Value 1k
SYMBOL res 1440 -144 R90
WINDOW 0 0 56 VBottom 2
WINDOW 3 32 56 VTop 2
SYMATTR InstName R9
SYMATTR Value 500
TEXT -192 488 Left 2 !.tran 0 .02 0
TEXT -192 536 Left 2 !.meas voutmax max v(vout)
TEXT -192 560 Left 2 !.meas voutavg avg v(vout) FROM 0.015 TO 0.02
TEXT -192 584 Left 2 !.meas ic_avg avg I(C1) FROM 0.015 TO 0.02
TEXT -192 608 Left 2 !.meas iRload_avg avg I(RLoad) FROM 0.015 TO 0.02
TEXT -192 632 Left 2 !.meas iL_avg avg I(L1) FROM 0.015 TO 0.02
TEXT 464 528 Left 2 !.meas settle find V(Vout) when abs(v(Vout)- voutavg)/voutavg=0.05 fall=last
TEXT 464 552 Left 2 !.meas rise time TRIG V(Vout)=(V(DCin)+0.1*(voutavg- V(DCin))) TD=0.2u RISE=1 TARG V(Vout)=(V(DCin)+0.9*(voutavg- V(DCin))) TD=0.2u RISE=1
TEXT 464 576 Left 2 !.meas efficiency avg -V(Vout)*I(Rload)/V(DCin)/I(DCin) FROM 0.015 TO 0.02
TEXT 2320 -96 Left 2 !.MODEL R6009ENX NMOS\n+ LEVEL=3\n+ L=2.0000E-6\n+ W=1\n+ KP=15.407E-6\n+ RS=10.000E-3\n+ RD=0\n+ VTO=4.5552\n+ RDS=6.0000E6\n+ TOX=2.0000E-6\n+ CGSO=500p\n+ CGDO=2p\n+ CBD=0\n+ RG=0\n+ N=2\n+ RB=1.0000E-3\n+ GAMMA=2.5\n+ ETA=0.00004\n+ KAPPA=0\n+ NFS=28G
