Version 4
SHEET 1 4584 1024
WIRE 1296 -768 528 -768
WIRE 224 -704 48 -704
WIRE 720 -704 224 -704
WIRE 720 -656 720 -704
WIRE 528 -608 528 -768
WIRE 560 -608 528 -608
WIRE 1104 -608 880 -608
WIRE 1296 -608 1296 -768
WIRE 1296 -608 1184 -608
WIRE 1296 -560 1296 -608
WIRE 224 -512 224 -704
WIRE 560 -512 224 -512
WIRE 960 -512 880 -512
WIRE 1120 -512 1040 -512
WIRE 1152 -512 1120 -512
WIRE 560 -416 352 -416
WIRE 960 -416 880 -416
WIRE 352 -368 352 -416
WIRE 1296 -336 1296 -480
WIRE 352 -240 352 -288
WIRE 720 -240 720 -368
WIRE 720 -240 352 -240
WIRE 960 -240 960 -416
WIRE 960 -240 720 -240
WIRE 352 -176 352 -240
WIRE 16 16 -336 16
WIRE 240 16 16 16
WIRE 544 16 320 16
WIRE 656 16 544 16
WIRE 720 16 656 16
WIRE 1024 16 784 16
WIRE 1216 16 1024 16
WIRE 1392 16 1216 16
WIRE 1600 16 1392 16
WIRE 544 48 544 16
WIRE 16 64 16 16
WIRE 1600 96 1600 16
WIRE -336 128 -336 16
WIRE 272 128 256 128
WIRE 496 128 272 128
WIRE 1024 144 1024 16
WIRE 1216 144 1216 16
WIRE 1392 144 1392 16
WIRE 16 192 16 144
WIRE 160 192 16 192
WIRE 16 256 16 192
WIRE -336 400 -336 208
WIRE 16 400 16 336
WIRE 16 400 -336 400
WIRE 544 400 544 144
WIRE 544 400 16 400
WIRE 1024 400 1024 208
WIRE 1024 400 544 400
WIRE 1216 400 1216 208
WIRE 1216 400 1024 400
WIRE 1392 400 1392 208
WIRE 1392 400 1216 400
WIRE 1600 400 1600 176
WIRE 1600 400 1392 400
WIRE -336 496 -336 400
FLAG 1600 16 Vout1
FLAG 656 16 Vin
FLAG -336 16 DCin
FLAG 272 128 PWMdrive
FLAG 1120 -512 PWMdrive
FLAG 352 -176 0
FLAG -336 496 0
FLAG 160 192 DC10v
FLAG 1296 -336 0
FLAG 48 -704 DC10v
SYMBOL voltage -336 112 R0
WINDOW 123 0 0 Left 0
WINDOW 39 0 0 Left 0
SYMATTR InstName DCin
SYMATTR Value 100
SYMBOL ind2 224 32 R270
WINDOW 0 32 56 VTop 2
WINDOW 3 5 56 VBottom 2
SYMATTR InstName L1
SYMATTR Value 3.135m
SYMATTR SpiceLine Rser=0.0033
SYMATTR Type ind
SYMBOL diode 720 32 R270
WINDOW 0 32 32 VTop 2
WINDOW 3 0 32 VBottom 2
SYMATTR InstName D1
SYMATTR Value RFUS20TF6S
SYMBOL res 1584 80 R0
SYMATTR InstName RLoad1
SYMATTR Value 247
SYMBOL nmos 496 48 R0
SYMATTR InstName M1
SYMATTR Value STN3N45K3
SYMBOL cap 1008 144 R0
SYMATTR InstName C3
SYMATTR Value 0.47µ
SYMATTR SpiceLine V=630 Irms=0 Rser=0.0363103 Lser=0
SYMBOL cap 1200 144 R0
SYMATTR InstName C1
SYMATTR Value 0.47µ
SYMATTR SpiceLine V=630 Irms=0 Rser=0.0363103 Lser=0
SYMBOL cap 1376 144 R0
SYMATTR InstName C2
SYMATTR Value 0.47µ
SYMATTR SpiceLine V=630 Irms=0 Rser=0.0363103 Lser=0
SYMBOL PowerProducts\\LTC4441-1 720 -512 R0
SYMATTR InstName U3
SYMBOL voltage 352 -384 R0
WINDOW 123 0 0 Left 0
WINDOW 39 0 0 Left 0
SYMATTR InstName PWM
SYMATTR Value PULSE(0 2.5 0 0 0 7.5u 10u)
SYMBOL res 0 48 R0
SYMATTR InstName R1
SYMATTR Value 900
SYMBOL res 0 240 R0
SYMATTR InstName R2
SYMATTR Value 100
SYMBOL res 1200 -624 R90
WINDOW 0 0 56 VBottom 2
WINDOW 3 32 56 VTop 2
SYMATTR InstName R3
SYMATTR Value 300k
SYMBOL res 1312 -464 R180
WINDOW 0 36 76 Left 2
WINDOW 3 36 40 Left 2
SYMATTR InstName R4
SYMATTR Value 45k
SYMBOL res 1056 -528 R90
WINDOW 0 0 56 VBottom 2
WINDOW 3 32 56 VTop 2
SYMATTR InstName R7
SYMATTR Value 100
TEXT 16 840 Left 2 !.tran 0 .02 0
TEXT 16 864 Left 2 !.model Switch1 SW(Ron=1 Roff=1Meg Vt=0.5 Vh=-0.4)
TEXT 664 840 Left 2 !.meas voutmax max v(vout)
TEXT 664 864 Left 2 !.meas voutavg avg v(vout) FROM 0.015 TO 0.02
TEXT 664 888 Left 2 !.meas ic_avg avg I(C1) FROM 0.015 TO 0.02
TEXT 664 912 Left 2 !.meas iRload_avg avg I(RLoad) FROM 0.015 TO 0.02
TEXT 664 936 Left 2 !.meas iL_avg avg I(L1) FROM 0.015 TO 0.02
TEXT 664 960 Left 2 !.meas settle find V(Vout) when abs(v(Vout)- voutavg)/voutavg=0.05 fall=last
TEXT 664 984 Left 2 !.meas rise time TRIG V(Vout)=(V(DCin)+0.1*(voutavg- V(DCin))) TD=0.2u RISE=1 TARG V(Vout)=(V(DCin)+0.9*(voutavg- V(DCin))) TD=0.2u RISE=1
TEXT 664 1008 Left 2 !.meas efficiency avg -V(Vout)*I(Rload)/V(DCin)/I(DCin) FROM 0.015 TO 0.02
