Version 4
SHEET 1 3124 1024
WIRE 1584 -224 1504 -224
WIRE 1776 -224 1648 -224
WIRE 1712 -192 1616 -192
WIRE 1504 -176 1504 -224
WIRE 1888 -48 1824 -48
WIRE 1952 -48 1888 -48
WIRE 2112 -48 2016 -48
WIRE 2432 -48 2208 -48
WIRE 240 16 48 16
WIRE 544 16 320 16
WIRE 656 16 544 16
WIRE 720 16 656 16
WIRE 1024 16 784 16
WIRE 1216 16 1024 16
WIRE 1392 16 1216 16
WIRE 1600 16 1392 16
WIRE 1712 16 1712 -192
WIRE 1712 16 1600 16
WIRE 1776 16 1776 -224
WIRE 1824 16 1824 -48
WIRE 1824 16 1776 16
WIRE 48 128 48 16
WIRE 544 144 544 16
WIRE 1024 144 1024 16
WIRE 1216 144 1216 16
WIRE 1392 144 1392 16
WIRE 1600 144 1600 16
WIRE 496 160 368 160
WIRE 368 208 368 160
WIRE 48 400 48 208
WIRE 320 400 320 272
WIRE 320 400 48 400
WIRE 368 400 368 288
WIRE 368 400 320 400
WIRE 496 400 496 208
WIRE 496 400 368 400
WIRE 544 400 544 224
WIRE 544 400 496 400
WIRE 1024 400 1024 208
WIRE 1024 400 544 400
WIRE 1216 400 1216 208
WIRE 1216 400 1024 400
WIRE 1392 400 1392 208
WIRE 1392 400 1216 400
WIRE 1600 400 1600 224
WIRE 1600 400 1392 400
WIRE 1824 400 1600 400
WIRE 48 448 48 400
FLAG 1600 16 Vout
FLAG 48 448 0
FLAG 656 16 Vin
FLAG 48 16 DCin
FLAG 1888 -48 Error
FLAG 2432 -48 PWM
FLAG 320 224 PWM
FLAG 1504 -96 0
SYMBOL voltage 48 112 R0
WINDOW 123 0 0 Left 0
WINDOW 39 0 0 Left 0
SYMATTR InstName DCin
SYMATTR Value 100
SYMBOL ind 224 32 R270
WINDOW 0 32 56 VTop 2
WINDOW 3 5 56 VBottom 2
SYMATTR InstName L1
SYMATTR Value 1.31m
SYMBOL diode 720 32 R270
WINDOW 0 32 32 VTop 2
WINDOW 3 0 32 VBottom 2
SYMATTR InstName D1
SYMBOL polcap 1008 144 R0
WINDOW 3 24 56 Left 2
SYMATTR Value 0.47µ
SYMATTR InstName C1
SYMATTR Description Capacitor
SYMATTR Type cap
SYMATTR SpiceLine V=400 Irms=12m Rser=1.58339 Lser=4.69174n mfg="Würth Elektronik" pn="860011373001 WCAP-ATG8 6,3x11" type="Al electrolytic"
SYMBOL res 1584 128 R0
SYMATTR InstName RLoad
SYMATTR Value 247
SYMBOL sw 544 240 M180
SYMATTR InstName S1
SYMATTR Value Switch1
SYMBOL polcap 1200 144 R0
WINDOW 3 24 56 Left 2
SYMATTR Value 0.47µ
SYMATTR InstName C2
SYMATTR Description Capacitor
SYMATTR Type cap
SYMATTR SpiceLine V=400 Irms=12m Rser=1.58339 Lser=4.69174n mfg="Würth Elektronik" pn="860011373001 WCAP-ATG8 6,3x11" type="Al electrolytic"
SYMBOL polcap 1376 144 R0
WINDOW 3 24 56 Left 2
SYMATTR Value 0.47µ
SYMATTR InstName C3
SYMATTR Description Capacitor
SYMATTR Type cap
SYMATTR SpiceLine V=400 Irms=12m Rser=1.58339 Lser=4.69174n mfg="Würth Elektronik" pn="860011373001 WCAP-ATG8 6,3x11" type="Al electrolytic"
SYMBOL voltage 1504 -192 R0
WINDOW 123 0 0 Left 0
WINDOW 39 0 0 Left 0
SYMATTR InstName V1
SYMATTR Value 400
SYMBOL LTspiceControlLibrary\\PulseModulations\\PWM 2128 -16 R0
SYMATTR Value Vin1=-300 Vin2=300 Tperiod=10u
SYMATTR InstName U7
SYMBOL LTspiceControlLibrary\\TransferFunctions\\Integral 1968 -16 R0
SYMATTR Value T=0.02
SYMATTR InstName U2
SYMBOL e 368 192 R0
SYMATTR InstName E1
SYMATTR Value 5
SYMBOL LTspiceControlLibrary\\Math\\Operands\\sub 1600 -192 R0
SYMATTR InstName U3
TEXT 1904 360 Left 2 !.model Switch1 SW(Ron=0.01 Roff=10Meg Vt=0.5 Vh=-0.4)
TEXT 1894 380 Left 2 !.tran 100m
