Version 4
SHEET 1 2468 1696
WIRE -1312 -176 -1328 -176
WIRE -1248 -176 -1312 -176
WIRE -1152 -176 -1184 -176
WIRE -1104 -176 -1152 -176
WIRE -1008 -176 -1040 -176
WIRE -928 -176 -1008 -176
WIRE -768 -176 -864 -176
WIRE -656 -176 -704 -176
WIRE -464 -176 -544 -176
WIRE -384 -176 -464 -176
WIRE -144 -176 -288 -176
WIRE -112 -176 -144 -176
WIRE -1008 -80 -1008 -176
WIRE -992 -80 -1008 -80
WIRE -832 -80 -928 -80
WIRE -736 -80 -736 -144
WIRE -736 -80 -768 -80
WIRE -1216 -16 -1216 -144
WIRE -1216 32 -1216 -16
WIRE -288 160 -1056 160
WIRE -1504 224 -1536 224
WIRE -1360 224 -1504 224
WIRE -864 224 -1360 224
WIRE 144 240 -16 240
WIRE 224 240 208 240
WIRE 608 240 224 240
WIRE -864 272 -864 224
WIRE -16 272 -16 240
WIRE 224 272 224 240
WIRE 608 272 608 240
WIRE -1056 320 -1056 160
WIRE -1024 320 -1056 320
WIRE -480 320 -704 320
WIRE -288 320 -288 160
WIRE -288 320 -400 320
WIRE 224 384 224 336
WIRE 608 384 608 352
WIRE 608 384 224 384
WIRE 768 384 608 384
WIRE -288 400 -288 320
WIRE -1360 416 -1360 224
WIRE -1024 416 -1360 416
WIRE -624 416 -704 416
WIRE -464 416 -544 416
WIRE -432 416 -464 416
WIRE -1360 480 -1360 416
WIRE -1472 496 -1504 496
WIRE -1392 496 -1472 496
WIRE -16 496 -16 352
WIRE 144 496 -16 496
WIRE 224 496 208 496
WIRE 608 496 224 496
WIRE -1168 512 -1328 512
WIRE -1024 512 -1168 512
WIRE -624 512 -704 512
WIRE -1552 528 -1568 528
WIRE -1392 528 -1552 528
WIRE -16 528 -16 496
WIRE 608 528 608 496
WIRE 224 544 224 496
WIRE -1168 560 -1168 512
WIRE 224 640 224 608
WIRE 608 640 608 608
WIRE 608 640 224 640
WIRE 768 640 768 384
WIRE 768 640 608 640
WIRE -1360 688 -1360 544
WIRE -1296 688 -1360 688
WIRE -1168 688 -1168 640
WIRE -1168 688 -1216 688
WIRE -1056 688 -1168 688
WIRE -1040 688 -1056 688
WIRE -864 688 -864 560
WIRE -624 688 -624 512
WIRE -624 688 -864 688
WIRE -288 688 -288 480
WIRE -288 688 -624 688
WIRE -1360 736 -1360 688
WIRE -864 736 -864 688
WIRE -16 752 -16 608
WIRE 144 752 -16 752
WIRE 224 752 208 752
WIRE 608 752 224 752
WIRE -16 784 -16 752
WIRE 608 784 608 752
WIRE 224 800 224 752
WIRE -1328 912 -1520 912
WIRE -1040 912 -1328 912
WIRE -672 912 -1040 912
WIRE -16 912 -16 864
WIRE 224 912 224 864
WIRE 224 912 -16 912
WIRE 608 912 608 864
WIRE 608 912 224 912
WIRE 768 912 768 640
WIRE 768 912 608 912
WIRE 832 912 768 912
WIRE 832 944 832 912
WIRE -1328 976 -1328 912
WIRE -1040 976 -1040 912
WIRE -672 1008 -672 912
WIRE 608 1024 224 1024
WIRE 768 1024 768 912
WIRE 768 1024 608 1024
WIRE -1520 1056 -1520 912
WIRE -16 1056 -16 912
WIRE 608 1056 608 1024
WIRE 224 1072 224 1024
WIRE -1328 1136 -1328 1056
WIRE -1168 1136 -1328 1136
WIRE -1136 1136 -1168 1136
WIRE -1040 1136 -1040 1056
WIRE -832 1136 -1040 1136
WIRE -816 1136 -832 1136
WIRE -672 1168 -672 1088
WIRE -16 1168 -16 1136
WIRE 144 1168 -16 1168
WIRE 224 1168 224 1136
WIRE 224 1168 208 1168
WIRE 608 1168 608 1136
WIRE 608 1168 224 1168
WIRE -1328 1216 -1328 1136
WIRE -1040 1216 -1040 1136
WIRE -864 1248 -912 1248
WIRE -720 1248 -864 1248
WIRE 608 1280 224 1280
WIRE 768 1280 768 1024
WIRE 768 1280 608 1280
WIRE -16 1312 -16 1168
WIRE 224 1312 224 1280
WIRE 608 1312 608 1280
WIRE -1520 1376 -1520 1136
WIRE -1328 1376 -1328 1296
WIRE -1328 1376 -1520 1376
WIRE -1040 1376 -1040 1296
WIRE -1040 1376 -1328 1376
WIRE -672 1376 -672 1264
WIRE -672 1376 -1040 1376
WIRE -1520 1424 -1520 1376
WIRE -16 1424 -16 1392
WIRE 144 1424 -16 1424
WIRE 224 1424 224 1376
WIRE 224 1424 208 1424
WIRE 608 1424 608 1392
WIRE 608 1424 224 1424
FLAG -464 416 PWMdrive
FLAG -1152 -176 Error
FLAG -144 -176 PWM
FLAG -464 -176 Control
FLAG -1216 -16 Vout_33
FLAG -1552 528 PWM
FLAG -1360 736 0
FLAG -1056 688 Feedback
FLAG -1472 496 Feedback
FLAG -1168 512 PWMin
FLAG -1312 -176 DC3.3V
FLAG -864 736 0
FLAG -1520 1424 0
FLAG -864 1248 PWMDrive
FLAG -16 240 E2_+12
FLAG -16 496 E2_+5
FLAG -16 752 E2_33
FLAG 608 240 Vout_+12
FLAG 608 496 Vout_+5
FLAG 608 752 Vout_33
FLAG -16 1168 E2_-5
FLAG 608 1168 Vout_-5
FLAG -16 1424 E2_-12
FLAG 608 1424 Vout_-12
FLAG 832 944 0
FLAG -1504 224 DC20V
FLAG -1168 1136 DC20V
FLAG -832 1136 DC3.3V
SYMBOL ind2 -688 1104 M180
WINDOW 0 36 80 Left 2
WINDOW 3 36 40 Left 2
SYMATTR InstName Lprim
SYMATTR Value 1.1m
SYMATTR Type ind
SYMATTR SpiceLine Rser=1m
SYMBOL nmos -720 1168 R0
SYMATTR InstName M1
SYMATTR Value R6530KNZ
SYMBOL PowerProducts\\LTC4441-1 -864 416 R0
SYMATTR InstName U1
SYMBOL res -384 304 R90
WINDOW 0 0 56 VBottom 2
WINDOW 3 32 56 VTop 2
SYMATTR InstName R1
SYMATTR Value 300k
SYMBOL res -272 496 R180
WINDOW 0 36 76 Left 2
WINDOW 3 36 40 Left 2
SYMATTR InstName R2
SYMATTR Value 45k
SYMBOL res -528 400 R90
WINDOW 0 0 56 VBottom 2
WINDOW 3 32 56 VTop 2
SYMATTR InstName R3
SYMATTR Value 100
SYMBOL LTspiceControlLibrary\\PulseModulations\\PWM -368 -144 R0
SYMATTR Value Vin1=-30m Vin2=30m Tperiod=10u
SYMATTR InstName U2
SYMBOL LTspiceControlLibrary\\Math\\Operands\\sub -1232 -144 R0
SYMATTR InstName U3
SYMBOL LTspiceControlLibrary\\TransferFunctions\\Proportional -1088 -144 R0
SYMATTR InstName U4
SYMBOL LTspiceControlLibrary\\Math\\Operands\\add -752 -144 R0
SYMATTR InstName U5
SYMBOL LTspiceControlLibrary\\TransferFunctions\\Proportional -912 -144 R0
SYMATTR Value K=0.0004
SYMATTR InstName U6
SYMBOL LTspiceControlLibrary\\Math\\Functions\\limit -640 -144 R0
SYMATTR Value y=-30m z=30m
SYMATTR InstName U7
SYMBOL LTspiceControlLibrary\\TransferFunctions\\Proportional -976 -48 R0
SYMATTR Value K=10
SYMATTR InstName U8
SYMBOL LTspiceControlLibrary\\TransferFunctions\\Integral -816 -48 R0
SYMATTR InstName U9
SYMBOL OpAmps\\LT1805 -1360 512 R0
SYMATTR InstName U10
SYMBOL res -1184 544 R0
SYMATTR InstName R4
SYMATTR Value 1k
SYMBOL res -1200 672 R90
WINDOW 0 0 56 VBottom 2
WINDOW 3 32 56 VTop 2
SYMATTR InstName R5
SYMATTR Value 500
SYMBOL voltage -1520 1040 R0
SYMATTR InstName V1
SYMATTR Value 400
SYMBOL ind2 0 256 M0
SYMATTR InstName Lsec_+12
SYMATTR Value 0.195µ
SYMATTR Type ind
SYMATTR SpiceLine Rser=1m
SYMBOL ind2 0 512 M0
SYMATTR InstName Lsec_+5
SYMATTR Value 14.5n
SYMATTR Type ind
SYMATTR SpiceLine Rser=1m
SYMBOL ind2 0 768 M0
SYMATTR InstName Lsec_33
SYMATTR Value 75n
SYMATTR Type ind
SYMATTR SpiceLine Rser=1m
SYMBOL res 592 256 R0
SYMATTR InstName Rload_1
SYMATTR Value 429m
SYMBOL res 592 512 R0
SYMATTR InstName Rload_2
SYMATTR Value 143m
SYMBOL res 592 768 R0
SYMATTR InstName Rload_3
SYMATTR Value 97.1m
SYMBOL cap 208 800 R0
SYMATTR InstName Cout_1
SYMATTR Value 3.4m
SYMBOL cap 208 544 R0
SYMATTR InstName Cout_2
SYMATTR Value 3.5m
SYMBOL cap 208 272 R0
SYMATTR InstName Cout_3
SYMATTR Value 1.2m
SYMBOL diode 144 256 R270
WINDOW 0 32 32 VTop 2
WINDOW 3 0 32 VBottom 2
SYMATTR InstName D1
SYMATTR Value DRBR40NS30AFH
SYMBOL diode 144 512 R270
WINDOW 0 32 32 VTop 2
WINDOW 3 0 32 VBottom 2
SYMATTR InstName D2
SYMATTR Value DRBR40NS30AFH
SYMBOL diode 144 768 R270
WINDOW 0 32 32 VTop 2
WINDOW 3 0 32 VBottom 2
SYMATTR InstName D3
SYMATTR Value DRBR40NS30AFH
SYMBOL res 592 1040 R0
SYMATTR InstName Rload_4
SYMATTR Value 10
SYMBOL cap 208 1072 R0
SYMATTR InstName Cout_4
SYMATTR Value 50µ
SYMBOL diode 208 1152 R90
WINDOW 0 0 32 VBottom 2
WINDOW 3 32 32 VTop 2
SYMATTR InstName D4
SYMATTR Value DRBR40NS30AFH
SYMBOL res 592 1296 R0
SYMATTR InstName Rload_5
SYMATTR Value 12
SYMBOL cap 208 1312 R0
SYMATTR InstName Cout_5
SYMATTR Value 41.7µ
SYMBOL diode 208 1408 R90
WINDOW 0 0 32 VBottom 2
WINDOW 3 32 32 VTop 2
SYMATTR InstName D5
SYMATTR Value DRBR40NS30AFH
SYMBOL ind2 0 1040 M0
SYMATTR InstName Lsec_-5
SYMATTR Value 0.105µ
SYMATTR Type ind
SYMATTR SpiceLine Rser=1m
SYMBOL ind2 0 1296 M0
SYMATTR InstName Lsec_-12
SYMATTR Value 0.175µ
SYMATTR Type ind
SYMATTR SpiceLine Rser=1m
SYMBOL res -1344 960 R0
SYMATTR InstName R6
SYMATTR Value 3800
SYMBOL res -1056 960 R0
SYMATTR InstName R7
SYMATTR Value 3967
SYMBOL res -1344 1200 R0
SYMATTR InstName R8
SYMATTR Value 200
SYMBOL res -1056 1200 R0
SYMATTR InstName R9
SYMATTR Value 33
TEXT 184 -168 Left 2 !K Lprim Lsec_+12 Lsec_-12 Lsec_+5 Lsec_-5 Lsec_33 0.99
TEXT 184 -144 Left 2 !.tran 0 5m 0
TEXT 992 864 Left 2 !.MODEL DRBR40NS30AFH D\n+ IS=1.0341E-6\n+ N=0.8185\n+ RS=3.7552E-3\n+ IKF=141.25E-3\n+ XTI=2.0\n+ EG=0.676\n+ CJO=3.4300E-9\n+ M=0.5308\n+ VJ=0.5031\n+ ISR=16.025E-6\n+ NR=1.2120\n+ BV=30\n+ TRS1=1.8511E-3
TEXT 992 56 Left 2 !.MODEL R6530KNZ NMOS\n+ LEVEL=3\n+ L=2.0000E-6\n+ W=1\n+ KP=118.00E-6\n+ RS=10.000E-3\n+ RD=0\n+ VTO=4.6189\n+ RDS=6.5000E6\n+ TOX=2.0000E-6\n+ CGSO=2245p\n+ CGDO=5p\n+ CBD=0\n+ RG=0\n+ N=2\n+ RB=1.0000E-3\n+ GAMMA=2.6\n+ ETA=0.1500E-3\n+ KAPPA=0\n+ NFS=24G
TEXT 184 -80 Left 2 !.save V(Vout_+12) V(Vout_+5) V(Vout_33) V(Vout_-5) V(Vout_-12) I(V1) I(Lprim) dialogbox
