Version 4
SHEET 1 4584 1024
WIRE 976 -688 208 -688
WIRE -256 -624 -272 -624
WIRE -96 -624 -256 -624
WIRE 400 -624 -96 -624
WIRE 400 -576 400 -624
WIRE 208 -528 208 -688
WIRE 240 -528 208 -528
WIRE 784 -528 560 -528
WIRE 976 -528 976 -688
WIRE 976 -528 864 -528
WIRE 976 -448 976 -528
WIRE -96 -432 -96 -624
WIRE 240 -432 -96 -432
WIRE 640 -432 560 -432
WIRE 800 -432 720 -432
WIRE 832 -432 800 -432
WIRE 112 -336 32 -336
WIRE 240 -336 112 -336
WIRE 640 -336 560 -336
WIRE 32 -288 32 -336
WIRE 976 -256 976 -368
WIRE 32 -160 32 -208
WIRE 400 -160 400 -288
WIRE 400 -160 32 -160
WIRE 640 -160 640 -336
WIRE 640 -160 400 -160
WIRE 32 -96 32 -160
WIRE 16 16 -336 16
WIRE 240 16 16 16
WIRE 544 16 320 16
WIRE 608 16 544 16
WIRE 720 16 608 16
WIRE 1024 16 784 16
WIRE 1216 16 1024 16
WIRE 1392 16 1216 16
WIRE 1600 16 1392 16
WIRE 16 64 16 16
WIRE 544 112 544 16
WIRE -336 128 -336 16
WIRE 1024 144 1024 16
WIRE 1216 144 1216 16
WIRE 1392 144 1392 16
WIRE 1600 144 1600 16
WIRE 16 192 16 144
WIRE 144 192 16 192
WIRE 160 192 144 192
WIRE 304 192 256 192
WIRE 496 192 304 192
WIRE 16 256 16 192
WIRE -336 400 -336 208
WIRE 16 400 16 336
WIRE 16 400 -336 400
WIRE 544 400 544 208
WIRE 544 400 16 400
WIRE 1024 400 1024 208
WIRE 1024 400 544 400
WIRE 1216 400 1216 208
WIRE 1216 400 1024 400
WIRE 1392 400 1392 208
WIRE 1392 400 1216 400
WIRE 1600 400 1600 224
WIRE 1600 400 1392 400
WIRE -336 496 -336 400
FLAG 1600 16 Vout
FLAG 608 16 Vin
FLAG -336 16 DCin
FLAG 304 192 PWMdrive
FLAG 800 -432 PWMdrive
FLAG 32 -96 0
FLAG -336 496 0
FLAG 144 192 DC20v
FLAG 976 -256 0
FLAG -256 -624 DC20v
FLAG 112 -336 PWMin
SYMBOL voltage -336 112 R0
WINDOW 123 0 0 Left 0
WINDOW 39 0 0 Left 0
SYMATTR InstName DCin
SYMATTR Value {X}
SYMBOL ind2 224 32 R270
WINDOW 0 32 56 VTop 2
WINDOW 3 5 56 VBottom 2
SYMATTR InstName L1
SYMATTR Value 3.135m
SYMATTR SpiceLine Rser=0.0033
SYMATTR Type ind
SYMBOL diode 720 32 R270
WINDOW 0 32 32 VTop 2
WINDOW 3 0 32 VBottom 2
SYMATTR InstName D1
SYMATTR Value RFUS20TF6S
SYMBOL res 1584 128 R0
SYMATTR InstName RLoad1
SYMATTR Value 247
SYMBOL cap 1008 144 R0
SYMATTR InstName C3
SYMATTR Value 0.47µ
SYMATTR SpiceLine V=630 Irms=0 Rser=0.0363103 Lser=0
SYMBOL cap 1200 144 R0
SYMATTR InstName C1
SYMATTR Value 0.47µ
SYMATTR SpiceLine V=630 Irms=0 Rser=0.0363103 Lser=0
SYMBOL cap 1376 144 R0
SYMATTR InstName C2
SYMATTR Value 0.47µ
SYMATTR SpiceLine V=630 Irms=0 Rser=0.0363103 Lser=0
SYMBOL PowerProducts\\LTC4441-1 400 -432 R0
SYMATTR InstName U3
SYMBOL voltage 32 -304 R0
WINDOW 123 0 0 Left 0
WINDOW 39 0 0 Left 0
SYMATTR InstName PWM
SYMATTR Value PULSE(0 2.5 0 0 0 {(400-X)/400*10u}  10u)
SYMBOL res 0 48 R0
SYMATTR InstName R1
SYMATTR Value 2k
SYMBOL res 0 240 R0
SYMATTR InstName R2
SYMATTR Value {40000/(X-20)}
SYMBOL res 880 -544 R90
WINDOW 0 0 56 VBottom 2
WINDOW 3 32 56 VTop 2
SYMATTR InstName R3
SYMATTR Value 300k
SYMBOL res 992 -352 R180
WINDOW 0 36 76 Left 2
WINDOW 3 36 40 Left 2
SYMATTR InstName R4
SYMATTR Value 45k
SYMBOL res 736 -448 R90
WINDOW 0 0 56 VBottom 2
WINDOW 3 32 56 VTop 2
SYMATTR InstName R7
SYMATTR Value 100
SYMBOL nmos 496 112 R0
SYMATTR InstName M1
SYMATTR Value R6009ENX
TEXT -256 448 Left 2 !.tran 0 .02 0
TEXT -256 496 Left 2 !.meas voutmax max v(vout)
TEXT -256 520 Left 2 !.meas voutavg avg v(vout) FROM 0.015 TO 0.02
TEXT -256 544 Left 2 !.meas ic_avg avg I(C1) FROM 0.015 TO 0.02
TEXT -256 568 Left 2 !.meas iRload_avg avg I(RLoad) FROM 0.015 TO 0.02
TEXT -256 592 Left 2 !.meas iL_avg avg I(L1) FROM 0.015 TO 0.02
TEXT -264 720 Left 2 !.meas settle find V(Vout) when abs(v(Vout)- voutavg)/voutavg=0.05 fall=last
TEXT -264 744 Left 2 !.meas rise time TRIG V(Vout)=(V(DCin)+0.1*(voutavg- V(DCin))) TD=0.2u RISE=1 TARG V(Vout)=(V(DCin)+0.9*(voutavg- V(DCin))) TD=0.2u RISE=1
TEXT -264 768 Left 2 !.meas efficiency avg -V(Vout)*I(Rload)/V(DCin)/I(DCin) FROM 0.015 TO 0.02
TEXT 1176 -688 Left 2 !.MODEL R6009ENX NMOS\n+ LEVEL=3\n+ L=2.0000E-6\n+ W=1\n+ KP=15.407E-6\n+ RS=10.000E-3\n+ RD=0\n+ VTO=4.5552\n+ RDS=6.0000E6\n+ TOX=2.0000E-6\n+ CGSO=500p\n+ CGDO=2p\n+ CBD=0\n+ RG=0\n+ N=2\n+ RB=1.0000E-3\n+ GAMMA=2.5\n+ ETA=0.00004\n+ KAPPA=0\n+ NFS=28G
TEXT -248 656 Left 2 !.step param X list 100 150 200 250 300 350
