Version 4
SHEET 1 3928 1024
WIRE 1680 -224 1504 -224
WIRE 1920 -224 1744 -224
WIRE 1968 -224 1920 -224
WIRE 2144 -224 2032 -224
WIRE 2288 -224 2144 -224
WIRE 2480 -224 2352 -224
WIRE 2608 -224 2544 -224
WIRE 2704 -224 2608 -224
WIRE 2928 -224 2816 -224
WIRE 3024 -224 2928 -224
WIRE 3344 -224 3120 -224
WIRE 1504 -176 1504 -224
WIRE 2144 -128 2144 -224
WIRE 2224 -128 2144 -128
WIRE 2400 -128 2288 -128
WIRE 2512 -128 2512 -192
WIRE 2512 -128 2464 -128
WIRE 1712 -16 1712 -192
WIRE 1984 -16 1712 -16
WIRE 240 16 48 16
WIRE 544 16 320 16
WIRE 656 16 544 16
WIRE 720 16 656 16
WIRE 1024 16 784 16
WIRE 1216 16 1024 16
WIRE 1392 16 1216 16
WIRE 1600 16 1392 16
WIRE 1824 16 1600 16
WIRE 1824 80 1824 16
WIRE 48 128 48 16
WIRE 544 144 544 16
WIRE 1024 144 1024 16
WIRE 1216 144 1216 16
WIRE 1392 144 1392 16
WIRE 1600 144 1600 16
WIRE 496 160 368 160
WIRE 368 208 368 160
WIRE 1824 224 1824 160
WIRE 1984 224 1984 -16
WIRE 1984 224 1824 224
WIRE 1824 240 1824 224
WIRE 48 400 48 208
WIRE 320 400 320 272
WIRE 320 400 48 400
WIRE 368 400 368 288
WIRE 368 400 320 400
WIRE 496 400 496 208
WIRE 496 400 368 400
WIRE 544 400 544 224
WIRE 544 400 496 400
WIRE 1024 400 1024 208
WIRE 1024 400 544 400
WIRE 1216 400 1216 208
WIRE 1216 400 1024 400
WIRE 1392 400 1392 208
WIRE 1392 400 1216 400
WIRE 1600 400 1600 224
WIRE 1600 400 1392 400
WIRE 1824 400 1824 320
WIRE 1824 400 1600 400
WIRE 48 448 48 400
FLAG 1600 16 Vout
FLAG 48 448 0
FLAG 656 16 Vin
FLAG 48 16 DCin
FLAG 1920 -224 Error
FLAG 3344 -224 PWM
FLAG 320 224 PWM
FLAG 1504 -96 0
FLAG 2608 -224 PWMin
FLAG 2928 -224 PWMinLim
SYMBOL voltage 48 112 R0
WINDOW 123 0 0 Left 0
WINDOW 39 0 0 Left 0
SYMATTR InstName DCin
SYMATTR Value 100
SYMBOL ind 224 32 R270
WINDOW 0 32 56 VTop 2
WINDOW 3 5 56 VBottom 2
SYMATTR InstName L1
SYMATTR Value 1.31m
SYMBOL diode 720 32 R270
WINDOW 0 32 32 VTop 2
WINDOW 3 0 32 VBottom 2
SYMATTR InstName D1
SYMBOL polcap 1008 144 R0
WINDOW 3 24 56 Left 2
SYMATTR Value 0.47µ
SYMATTR InstName C1
SYMATTR Description Capacitor
SYMATTR Type cap
SYMATTR SpiceLine V=400 Irms=12m Rser=1.58339 Lser=4.69174n mfg="Würth Elektronik" pn="860011373001 WCAP-ATG8 6,3x11" type="Al electrolytic"
SYMBOL res 1584 128 R0
SYMATTR InstName RLoad
SYMATTR Value 247
SYMBOL sw 544 240 M180
SYMATTR InstName S1
SYMATTR Value Switch1
SYMBOL polcap 1200 144 R0
WINDOW 3 24 56 Left 2
SYMATTR Value 0.47µ
SYMATTR InstName C2
SYMATTR Description Capacitor
SYMATTR Type cap
SYMATTR SpiceLine V=400 Irms=12m Rser=1.58339 Lser=4.69174n mfg="Würth Elektronik" pn="860011373001 WCAP-ATG8 6,3x11" type="Al electrolytic"
SYMBOL polcap 1376 144 R0
WINDOW 3 24 56 Left 2
SYMATTR Value 0.47µ
SYMATTR InstName C3
SYMATTR Description Capacitor
SYMATTR Type cap
SYMATTR SpiceLine V=400 Irms=12m Rser=1.58339 Lser=4.69174n mfg="Würth Elektronik" pn="860011373001 WCAP-ATG8 6,3x11" type="Al electrolytic"
SYMBOL voltage 1504 -192 R0
WINDOW 123 0 0 Left 0
WINDOW 39 0 0 Left 0
SYMATTR InstName V1
SYMATTR Value 2.5
SYMBOL LTspiceControlLibrary\\PulseModulations\\PWM 3040 -192 R0
SYMATTR Value Vin1=-30m Vin2=30m Tperiod=10u
SYMATTR InstName U7
SYMBOL e 368 192 R0
SYMATTR InstName E1
SYMATTR Value 5
SYMBOL LTspiceControlLibrary\\Math\\Operands\\sub 1696 -192 R0
SYMATTR InstName U3
SYMBOL LTspiceControlLibrary\\TransferFunctions\\Proportional 1984 -192 R0
SYMATTR InstName U4
SYMBOL LTspiceControlLibrary\\Math\\Operands\\add 2496 -192 R0
SYMATTR InstName U11
SYMBOL res 1808 64 R0
SYMATTR InstName R1
SYMATTR Value 159k
SYMBOL res 1808 224 R0
SYMATTR InstName R2
SYMATTR Value 1k
SYMBOL LTspiceControlLibrary\\TransferFunctions\\Proportional 2304 -192 R0
SYMATTR Value K=0.000152
SYMATTR InstName U8
SYMBOL LTspiceControlLibrary\\Math\\Functions\\limit 2720 -192 R0
SYMATTR Value y=-30m z=30m
SYMATTR InstName U10
SYMBOL LTspiceControlLibrary\\TransferFunctions\\Proportional 2240 -96 R0
SYMATTR Value K=0.85533
SYMATTR InstName U1
SYMBOL LTspiceControlLibrary\\TransferFunctions\\Integral 2416 -96 R0
SYMATTR InstName U2
TEXT 1904 360 Left 2 !.model Switch1 SW(Ron=0.01 Roff=10Meg Vt=0.5 Vh=-0.4)
TEXT 1896 384 Left 2 !.tran 100m
