Version 4
SHEET 1 4584 1372
WIRE -528 -1024 -544 -1024
WIRE -464 -1024 -528 -1024
WIRE -368 -1024 -400 -1024
WIRE -320 -1024 -368 -1024
WIRE -224 -1024 -256 -1024
WIRE -144 -1024 -224 -1024
WIRE 16 -1024 -80 -1024
WIRE 128 -1024 80 -1024
WIRE 320 -1024 240 -1024
WIRE 400 -1024 320 -1024
WIRE 640 -1024 496 -1024
WIRE 672 -1024 640 -1024
WIRE -224 -928 -224 -1024
WIRE -208 -928 -224 -928
WIRE -48 -928 -144 -928
WIRE 48 -928 48 -992
WIRE 48 -928 16 -928
WIRE -432 -864 -432 -992
WIRE -432 -816 -432 -864
WIRE 656 -768 -112 -768
WIRE -576 -704 -592 -704
WIRE -416 -704 -576 -704
WIRE 80 -704 -416 -704
WIRE 80 -656 80 -704
WIRE -112 -608 -112 -768
WIRE -80 -608 -112 -608
WIRE 464 -608 240 -608
WIRE 656 -608 656 -768
WIRE 656 -608 544 -608
WIRE 656 -528 656 -608
WIRE -416 -512 -416 -704
WIRE -80 -512 -416 -512
WIRE 320 -512 240 -512
WIRE 480 -512 400 -512
WIRE 512 -512 480 -512
WIRE -416 -448 -416 -512
WIRE -528 -432 -560 -432
WIRE -448 -432 -528 -432
WIRE -224 -416 -384 -416
WIRE -208 -416 -224 -416
WIRE -80 -416 -208 -416
WIRE 320 -416 240 -416
WIRE -448 -400 -608 -400
WIRE -224 -368 -224 -416
WIRE -416 -240 -416 -384
WIRE -352 -240 -416 -240
WIRE -224 -240 -224 -288
WIRE -224 -240 -272 -240
WIRE -112 -240 -224 -240
WIRE -96 -240 -112 -240
WIRE 80 -240 80 -368
WIRE 320 -240 320 -416
WIRE 320 -240 80 -240
WIRE 656 -240 656 -448
WIRE 656 -240 320 -240
WIRE -416 -192 -416 -240
WIRE 80 -192 80 -240
WIRE -288 -48 -416 -48
WIRE -96 -48 -288 -48
WIRE 128 -48 -16 -48
WIRE 192 -48 128 -48
WIRE 224 -48 192 -48
WIRE 352 -48 288 -48
WIRE 464 -48 352 -48
WIRE 576 -48 464 -48
WIRE 704 -48 576 -48
WIRE 864 -48 704 -48
WIRE 928 -48 864 -48
WIRE -288 0 -288 -48
WIRE 704 32 704 -48
WIRE 128 48 128 -48
WIRE -416 64 -416 -48
WIRE 352 80 352 -48
WIRE 464 80 464 -48
WIRE 576 80 576 -48
WIRE -288 128 -288 80
WIRE -160 128 -288 128
WIRE -144 128 -160 128
WIRE 0 128 -64 128
WIRE 80 128 0 128
WIRE 704 160 704 112
WIRE 864 160 704 160
WIRE 880 160 864 160
WIRE -288 192 -288 128
WIRE 704 192 704 160
WIRE -416 336 -416 144
WIRE -288 336 -288 272
WIRE -288 336 -416 336
WIRE 128 336 128 144
WIRE 128 336 -288 336
WIRE 352 336 352 144
WIRE 352 336 128 336
WIRE 464 336 464 144
WIRE 464 336 352 336
WIRE 576 336 576 144
WIRE 576 336 464 336
WIRE 704 336 704 272
WIRE 704 336 576 336
WIRE -416 432 -416 336
FLAG 864 -48 Vout
FLAG 192 -48 Vin
FLAG -416 -48 DCin
FLAG 0 128 PWMdrive
FLAG 480 -512 PWMdrive
FLAG -416 432 0
FLAG -160 128 DC20v
FLAG -576 -704 DC20v
FLAG -208 -416 PWMin
FLAG -368 -1024 Error
FLAG 640 -1024 PWM
FLAG 320 -1024 Control
FLAG 864 160 Vcontrol
FLAG -432 -864 Vcontrol
FLAG -608 -400 PWM
FLAG -416 -192 0
FLAG -112 -240 Feedback
FLAG -528 -432 Feedback
FLAG -528 -1024 DC20v
FLAG 80 -192 0
SYMBOL voltage -416 48 R0
WINDOW 123 0 0 Left 0
WINDOW 39 0 0 Left 0
SYMATTR InstName DCin
SYMATTR Value 100
SYMBOL ind2 -112 -32 R270
WINDOW 0 32 56 VTop 2
WINDOW 3 5 56 VBottom 2
SYMATTR InstName L1
SYMATTR Value 3.135m
SYMATTR SpiceLine Rser=0.0033
SYMATTR Type ind
SYMBOL diode 224 -32 R270
WINDOW 0 32 32 VTop 2
WINDOW 3 0 32 VBottom 2
SYMATTR InstName D1
SYMATTR Value RFUS20TF6S
SYMBOL cap 336 80 R0
SYMATTR InstName C3
SYMATTR Value 0.47µ
SYMATTR SpiceLine V=630 Irms=0 Rser=0.0363103 Lser=0
SYMBOL cap 448 80 R0
SYMATTR InstName C1
SYMATTR Value 0.47µ
SYMATTR SpiceLine V=630 Irms=0 Rser=0.0363103 Lser=0
SYMBOL cap 560 80 R0
SYMATTR InstName C2
SYMATTR Value 0.47µ
SYMATTR SpiceLine V=630 Irms=0 Rser=0.0363103 Lser=0
SYMBOL PowerProducts\\LTC4441-1 80 -512 R0
SYMATTR InstName U3
SYMBOL res -304 -16 R0
SYMATTR InstName R1
SYMATTR Value 2k
SYMBOL res -304 176 R0
SYMATTR InstName R2
SYMATTR Value 500
SYMBOL res 560 -624 R90
WINDOW 0 0 56 VBottom 2
WINDOW 3 32 56 VTop 2
SYMATTR InstName R3
SYMATTR Value 300k
SYMBOL res 672 -432 R180
WINDOW 0 36 76 Left 2
WINDOW 3 36 40 Left 2
SYMATTR InstName R4
SYMATTR Value 45k
SYMBOL res 416 -528 R90
WINDOW 0 0 56 VBottom 2
WINDOW 3 32 56 VTop 2
SYMATTR InstName R7
SYMATTR Value 100
SYMBOL nmos 80 48 R0
SYMATTR InstName M1
SYMATTR Value R6009ENX
SYMBOL LTspiceControlLibrary\\PulseModulations\\PWM 416 -992 R0
SYMATTR Value Vin1=-30m Vin2=30m Tperiod=10u
SYMATTR InstName U1
SYMBOL LTspiceControlLibrary\\Math\\Operands\\sub -448 -992 R0
SYMATTR InstName U2
SYMBOL LTspiceControlLibrary\\TransferFunctions\\Proportional -304 -992 R0
SYMATTR InstName U4
SYMBOL LTspiceControlLibrary\\Math\\Operands\\add 32 -992 R0
SYMATTR InstName U5
SYMBOL LTspiceControlLibrary\\TransferFunctions\\Proportional -128 -992 R0
SYMATTR Value K=0.000152
SYMATTR InstName U6
SYMBOL LTspiceControlLibrary\\Math\\Functions\\limit 144 -992 R0
SYMATTR Value y=-30m z=30m
SYMATTR InstName U7
SYMBOL LTspiceControlLibrary\\TransferFunctions\\Proportional -192 -896 R0
SYMATTR Value K=0.85533
SYMATTR InstName U8
SYMBOL LTspiceControlLibrary\\TransferFunctions\\Integral -32 -896 R0
SYMATTR InstName U9
SYMBOL res 688 16 R0
SYMATTR InstName R5
SYMATTR Value 235.8
SYMBOL res 688 176 R0
SYMATTR InstName R6
SYMATTR Value 11.2
SYMBOL OpAmps\\LT1805 -416 -416 R0
SYMATTR InstName U10
SYMBOL res -240 -384 R0
SYMATTR InstName R8
SYMATTR Value 1k
SYMBOL res -256 -256 R90
WINDOW 0 0 56 VBottom 2
WINDOW 3 32 56 VTop 2
SYMATTR InstName R9
SYMATTR Value 500
TEXT -424 536 Left 2 !.tran 0 .02 0
TEXT -424 584 Left 2 !.meas voutmax max v(vout)
TEXT -424 608 Left 2 !.meas voutavg avg v(vout) FROM 0.015 TO 0.02
TEXT -424 632 Left 2 !.meas ic_avg avg I(C1) FROM 0.015 TO 0.02
TEXT -424 656 Left 2 !.meas iRload_avg avg I(RLoad) FROM 0.015 TO 0.02
TEXT -424 680 Left 2 !.meas iL_avg avg I(L1) FROM 0.015 TO 0.02
TEXT -424 712 Left 2 !.meas settle find V(Vout) when abs(v(Vout)- voutavg)/voutavg=0.05 fall=last
TEXT -424 736 Left 2 !.meas rise time TRIG V(Vout)=(V(DCin)+0.1*(voutavg- V(DCin))) TD=0.2u RISE=1 TARG V(Vout)=(V(DCin)+0.9*(voutavg- V(DCin))) TD=0.2u RISE=1
TEXT -424 760 Left 2 !.meas efficiency avg -V(Vout)*I(Rload)/V(DCin)/I(DCin) FROM 0.015 TO 0.02
TEXT -424 824 Left 2 !.MODEL R6009ENX NMOS\n+ LEVEL=3\n+ L=2.0000E-6\n+ W=1\n+ KP=15.407E-6\n+ RS=10.000E-3\n+ RD=0\n+ VTO=4.5552\n+ RDS=6.0000E6\n+ TOX=2.0000E-6\n+ CGSO=500p\n+ CGDO=2p\n+ CBD=0\n+ RG=0\n+ N=2\n+ RB=1.0000E-3\n+ GAMMA=2.5\n+ ETA=0.00004\n+ KAPPA=0\n+ NFS=28G
